version 3
run General-0-20230618-20:32:59-124336
attr configname General
attr datetime 20230618-20:32:59
attr datetimef 20230618-203259
attr experiment General
attr inifile omnetpp.ini
attr iterationvars ""
attr iterationvarsd ""
attr iterationvarsf ""
attr measurement ""
attr network myHospitalNetwork
attr processid 124336
attr repetition 0
attr replication #0
attr resultdir results
attr runnumber 0
attr seedset 0
config debug-on-errors true
config image-path ../../../inet/images:../../../veins/images
config cmdenv-express-mode true
config cmdenv-autoflush true
config cmdenv-status-frequency 0.1s
config **.cmdenv-log-level info
config ned-path .
config image-path ../../images
config network myHospitalNetwork
config debug-on-errors true
config print-undisposed false
config sim-time-limit 3600s
config **.scalar-recording true
config **.vector-recording true
config *.playgroundSizeX 2500m
config *.playgroundSizeY 2500m
config *.playgroundSizeZ 50m
config *.annotations.draw true
config *.manager.updateInterval 0.1s
config *.manager.host "\"localhost\""
config *.manager.port 9999
config *.manager.autoShutdown true
config *.manager.launchConfig "xmldoc(\"vd013.launchd.xml\")"
config *.manager.moduleType "\"agv=org.car2x.veins.nodes.Car pedestrian=gr2.veins_inet.IPerson\""
config *.manager.moduleName "\"agv=node pedestrian=personNode\""
config *.manager.moduleDisplayString "\"agv='i=veins/node/car;is=vs' pedestrian='i=veins/node/pedestrian;is=vs'\""
config *.rsu[0].mobility.x 300
config *.rsu[0].mobility.y 300
config *.rsu[0].mobility.z 3
config *.rsu[*].applType "\"HospitalControlApp\""
config *.rsu[*].appl.headerLength "80 bit"
config *.rsu[*].appl.sendBeacons false
config *.rsu[*].appl.dataOnSch false
config *.rsu[*].nic.phy80211p.antennaOffsetZ "0 m"
config *.connectionManager.sendDirect true
config *.connectionManager.maxInterfDist 2600m
config *.connectionManager.drawMaxIntfDist false
config *.**.nic.mac1609_4.useServiceChannel true
config *.**.nic.mac1609_4.txPower 20mW
config *.**.nic.mac1609_4.bitrate 6Mbps
config *.**.nic.phy80211p.minPowerLevel -110dBm
config *.**.nic.phy80211p.useNoiseFloor true
config *.**.nic.phy80211p.noiseFloor -98dBm
config *.**.nic.phy80211p.decider "xmldoc(\"config.xml\")"
config *.**.nic.phy80211p.analogueModels "xmldoc(\"config.xml\")"
config *.**.nic.phy80211p.usePropagationDelay true
config *.**.nic.phy80211p.antenna "xmldoc(\"antenna.xml\", \"/root/Antenna[@id='monopole']\")"
config *.node[*].nic.phy80211p.antennaOffsetY "0 m"
config *.node[*].nic.phy80211p.antennaOffsetZ "1.895 m"
config *.node[*].applType "\"AGVControlApp\""
config *.node[*].appl.headerLength "80 bit"
config *.node[*].appl.sendBeacons false
config *.node[*].appl.dataOnSch true
config *.node[*].appl.beaconInterval 0.1s
config *.node[*].veinsmobility.x 0
config *.node[*].veinsmobility.y 0
config *.node[*].veinsmobility.z 0
config *.node[*].veinsmobility.setHostSpeed false
config *.node[*0].veinsmobility.accidentCount 0

vector 0 myHospitalNetwork.node[0].veinsmobility posx ETV
vector 1 myHospitalNetwork.node[0].veinsmobility posy ETV
vector 2 myHospitalNetwork.node[0].veinsmobility speed ETV
vector 3 myHospitalNetwork.node[0].veinsmobility acceleration ETV
vector 4 myHospitalNetwork.node[0].veinsmobility co2emission ETV
4	340	9.3	8.2411490285043
4	402	9.4	10.702615822783
4	464	9.5	7.4161976788544
4	526	9.6	1.3336271612027
4	584	9.7	1.3336271612027
4	646	9.8	1.3336271612027
4	704	9.9	1.3336271612027
4	766	10	1.3336271612027
4	828	10.1	1.3336271612027
4	890	10.2	1.3336271612027
4	952	10.3	1.3336271612027
4	1014	10.4	1.3336271612027
4	1076	10.5	1.3336271612027
4	1138	10.6	1.3336271612027
4	1196	10.7	1.3336271612027
4	1254	10.8	1.3336271612027
4	1316	10.9	1.3336271612027
4	1378	11	1.3336271612027
4	1436	11.1	1.3336271612027
4	1498	11.2	1.3336271612027
4	1560	11.3	1.3336271612027
4	1618	11.4	1.3336271612027
4	1680	11.5	1.3336271612027
4	1728	11.6	1.3336271612027
4	1776	11.7	1.3336271612027
4	1824	11.8	1.3336271612027
4	1872	11.9	1.3336271612027
4	1920	12	1.3336271612027
4	1968	12.1	1.3336271612027
4	2016	12.2	1.3336271612027
4	2064	12.3	1.3336271612027
4	2112	12.4	1.3336271612027
4	2174	12.5	1.3336271612027
4	2236	12.6	1.3336271612027
4	2294	12.7	1.3336271612027
4	2356	12.8	1.3336271612027
4	2418	12.9	1.3336271612027
4	2480	13	1.3336271612027
4	2542	13.1	1.3336271612027
4	2604	13.2	1.3336271612027
4	2666	13.3	1.3336271612027
4	2728	13.4	1.3336271612027
4	2790	13.5	1.3336271612027
4	2852	13.6	1.3336271612027
4	2914	13.7	1.3336271612027
4	2976	13.8	1.3336271612027
4	3034	13.9	1.3336271612027
4	3096	14	1.3336271612027
4	3154	14.1	1.3336271612027
4	3212	14.2	1.3336271612027
4	3274	14.3	1.3336271612027
4	3322	14.4	1.3336271612027
4	3370	14.5	1.3336271612027
4	3418	14.6	1.3336271612027
4	3466	14.7	1.3336271612027
4	3514	14.8	1.3336271612027
4	3562	14.9	1.3336271612027
4	3610	15	1.3336271612027
4	3658	15.1	1.3336271612027
4	3706	15.2	1.3336271612027
4	3768	15.3	1.3336271612027
4	3830	15.4	1.3336271612027
4	3892	15.5	1.3336271612027
4	3950	15.6	1.3336271612027
4	4012	15.7	1.3336271612027
4	4074	15.8	1.3336271612027
4	4136	15.9	1.3336271612027
4	4184	16	1.3336271612027
4	4232	16.1	1.3336271612027
4	4280	16.2	1.3336271612027
4	4328	16.3	1.3336271612027
4	4376	16.4	1.3336271612027
4	4424	16.5	1.3336271612027
4	4472	16.6	1.3336271612027
4	4520	16.7	1.3336271612027
4	4568	16.8	1.3336271612027
4	4616	16.9	1.3336271612027
4	4664	17	1.3336271612027
4	4712	17.1	1.3336271612027
4	4760	17.2	1.3336271612027
4	4808	17.3	1.3336271612027
4	4856	17.4	1.3336271612027
4	4904	17.5	1.3336271612027
4	4952	17.6	1.3336271612027
4	5000	17.7	1.3336271612027
4	5048	17.8	1.3336271612027
4	5096	17.9	1.3336271612027
4	5154	18	1.3336271612027
4	5216	18.1	1.3336271612027
4	5278	18.2	1.3336271612027
4	5340	18.3	1.3336271612027
4	5402	18.4	1.3336271612027
4	5464	18.5	1.3336271612027
4	5526	18.6	1.3336271612027
4	5588	18.7	1.3336271612027
4	5650	18.8	1.3336271612027
4	5712	18.9	1.3336271612027
4	5770	19	1.3336271612027
4	5832	19.1	1.3336271612027
4	5894	19.2	1.3336271612027
4	5956	19.3	1.3336271612027
4	6018	19.4	1.3336271612027
4	6080	19.5	1.3336271612027
4	6142	19.6	1.3336271612027
4	6204	19.7	1.3336271612027
4	6266	19.8	1.3336271612027
4	6328	19.9	1.3336271612027
4	6390	20	1.3336271612027
4	6448	20.1	1.3336271612027
4	6510	20.2	1.3336271612027
4	6572	20.3	1.3336271612027
4	6620	20.4	1.3336271612027
4	6668	20.5	1.3336271612027
4	6716	20.6	1.3336271612027
4	6764	20.7	1.3336271612027
4	6812	20.8	1.3336271612027
4	6860	20.9	1.3336271612027
4	6908	21	1.3336271612027
4	6956	21.1	1.3336271612027
4	7004	21.2	1.3336271612027
4	7052	21.3	1.3336271612027
4	7100	21.4	1.3336271612027
4	7148	21.5	1.3336271612027
4	7196	21.6	1.3336271612027
4	7244	21.7	1.3336271612027
4	7292	21.8	1.3336271612027
4	7340	21.9	1.3336271612027
4	7388	22	1.3336271612027
4	7436	22.1	1.3336271612027
4	7484	22.2	1.3336271612027
4	7532	22.3	1.3336271612027
4	7580	22.4	1.3336271612027
4	7628	22.5	1.3336271612027
4	7676	22.6	1.3336271612027
4	7724	22.7	1.3336271612027
4	7772	22.8	1.3336271612027
4	7820	22.9	1.3336271612027
4	7868	23	1.3336271612027
4	7916	23.1	1.3336271612027
4	7964	23.2	1.3336271612027
4	8012	23.3	1.3336271612027
4	8060	23.4	1.3336271612027
4	8108	23.5	1.3336271612027
4	8166	23.6	1.3336271612027
4	8228	23.7	1.3336271612027
4	8286	23.8	1.3336271612027
4	8348	23.9	1.3336271612027
4	8410	24	1.3336271612027
4	8472	24.1	1.3336271612027
4	8534	24.2	1.3336271612027
4	8596	24.3	1.3336271612027
4	8644	24.4	1.3336271612027
4	8692	24.5	1.3336271612027
4	8740	24.6	1.3336271612027
4	8788	24.7	1.3336271612027
4	8836	24.8	1.3336271612027
4	8884	24.9	1.3336271612027
4	8932	25	1.3336271612027
4	8980	25.1	1.3336271612027
4	9028	25.2	1.3336271612027
4	9090	25.3	1.3336271612027
4	9148	25.4	1.3336271612027
4	9206	25.5	1.3336271612027
4	9268	25.6	1.3336271612027
4	9330	25.7	1.3336271612027
4	9392	25.8	1.3336271612027
4	9454	25.9	1.3336271612027
4	9516	26	1.3336271612027
4	9574	26.1	1.3336271612027
4	9632	26.2	1.3336271612027
4	9690	26.3	1.3336271612027
4	9752	26.4	1.3336271612027
4	9814	26.5	1.3336271612027
4	9876	26.6	1.3336271612027
4	9938	26.7	1.3336271612027
4	10000	26.8	1.3336271612027
4	10062	26.9	1.3336271612027
4	10124	27	1.3336271612027
4	10182	27.1	1.3336271612027
4	10230	27.2	1.3336271612027
4	10278	27.3	1.3336271612027
4	10326	27.4	1.3336271612027
4	10374	27.5	1.3336271612027
4	10422	27.6	1.3336271612027
4	10470	27.7	1.3336271612027
4	10518	27.8	1.3336271612027
4	10566	27.9	1.3336271612027
4	10614	28	1.3336271612027
4	10672	28.1	1.3336271612027
4	10734	28.2	1.3336271612027
4	10792	28.3	1.3336271612027
4	10850	28.4	1.3336271612027
4	10908	28.5	1.3336271612027
4	10970	28.6	1.3336271612027
4	11032	28.7	1.3336271612027
4	11094	28.8	1.3336271612027
4	11156	28.9	1.3336271612027
4	11218	29	1.3336271612027
4	11276	29.1	1.3336271612027
4	11338	29.2	1.3336271612027
4	11400	29.3	1.3336271612027
4	11458	29.4	1.3336271612027
4	11520	29.5	1.3336271612027
4	11582	29.6	1.3336271612027
4	11640	29.7	1.3336271612027
4	11702	29.8	1.3336271612027
4	11764	29.9	1.3336271612027
4	11812	30	1.3336271612027
4	11860	30.1	1.3336271612027
4	11908	30.2	1.3336271612027
4	11956	30.3	1.3336271612027
4	12004	30.4	1.3336271612027
4	12052	30.5	1.3336271612027
4	12100	30.6	1.3336271612027
4	12148	30.7	1.3336271612027
4	12196	30.8	1.3336271612027
4	12254	30.9	1.3336271612027
4	12316	31	1.3336271612027
4	12378	31.1	1.3336271612027
4	12440	31.2	1.3336271612027
4	12502	31.3	1.3336271612027
4	12560	31.4	1.3336271612027
4	12622	31.5	1.3336271612027
4	12670	31.6	1.3336271612027
4	12718	31.7	1.3336271612027
4	12766	31.8	1.3336271612027
4	12814	31.9	1.3336271612027
4	12862	32	1.3336271612027
4	12910	32.1	1.3336271612027
4	12958	32.2	1.3336271612027
4	13006	32.3	1.3336271612027
4	13054	32.4	1.3336271612027
4	13102	32.5	1.3336271612027
4	13150	32.6	1.3336271612027
4	13198	32.7	1.3336271612027
4	13246	32.8	1.3336271612027
4	13294	32.9	1.3336271612027
4	13342	33	1.3336271612027
4	13390	33.1	1.3336271612027
4	13438	33.2	1.3336271612027
4	13486	33.3	1.3336271612027
4	13534	33.4	1.3336271612027
4	13582	33.5	1.3336271612027
4	13630	33.6	1.3336271612027
4	13678	33.7	1.3336271612027
4	13726	33.8	1.3336271612027
4	13774	33.9	1.3336271612027
4	13822	34	1.3336271612027
4	13870	34.1	1.3336271612027
4	13918	34.2	1.3336271612027
4	13966	34.3	1.3336271612027
4	14014	34.4	1.3336271612027
4	14062	34.5	1.3336271612027
4	14110	34.6	1.3336271612027
4	14158	34.7	1.3336271612027
4	14216	34.8	1.3336271612027
4	14278	34.9	1.3336271612027
4	14336	35	1.3336271612027
4	14394	35.1	1.3336271612027
4	14456	35.2	1.3336271612027
4	14518	35.3	1.3336271612027
4	14580	35.4	1.3336271612027
4	14642	35.5	1.3336271612027
4	14690	35.6	1.3336271612027
4	14738	35.7	1.3336271612027
4	14786	35.8	1.3336271612027
4	14834	35.9	1.3336271612027
4	14882	36	1.3336271612027
4	14930	36.1	1.3336271612027
4	14978	36.2	1.3336271612027
4	15026	36.3	1.3336271612027
4	15074	36.4	1.3336271612027
4	15136	36.5	1.3336271612027
4	15198	36.6	1.3336271612027
4	15256	36.7	1.3336271612027
4	15314	36.8	1.3336271612027
4	15376	36.9	1.3336271612027
4	15438	37	1.3336271612027
4	15500	37.1	1.3336271612027
4	15548	37.2	1.3336271612027
4	15596	37.3	1.3336271612027
4	15644	37.4	1.3336271612027
4	15692	37.5	1.3336271612027
4	15740	37.6	1.3336271612027
4	15788	37.7	1.3336271612027
4	15836	37.8	1.3336271612027
4	15884	37.9	1.3336271612027
4	15932	38	1.3336271612027
4	15980	38.1	1.3336271612027
4	16028	38.2	1.3336271612027
4	16076	38.3	1.3336271612027
4	16124	38.4	1.3336271612027
4	16172	38.5	1.3336271612027
4	16220	38.6	1.3336271612027
4	16268	38.7	1.3336271612027
4	16316	38.8	1.3336271612027
4	16364	38.9	1.3336271612027
4	16412	39	1.3336271612027
4	16460	39.1	1.3336271612027
4	16508	39.2	1.3336271612027
4	16556	39.3	1.3336271612027
4	16604	39.4	1.3336271612027
4	16652	39.5	1.3336271612027
4	16700	39.6	1.3336271612027
4	16748	39.7	1.3336271612027
4	16796	39.8	1.3336271612027
4	16844	39.9	1.3336271612027
4	16892	40	1.3336271612027
4	16940	40.1	1.3336271612027
4	16988	40.2	1.3336271612027
4	17036	40.3	1.3336271612027
4	17098	40.4	1.3336271612027
4	17160	40.5	1.3336271612027
4	17218	40.6	1.3336271612027
4	17280	40.7	1.3336271612027
4	17338	40.8	1.3336271612027
4	17400	40.9	1.3336271612027
4	17458	41	1.3336271612027
4	17520	41.1	1.3336271612027
4	17568	41.2	1.3336271612027
4	17616	41.3	1.3336271612027
4	17664	41.4	1.3336271612027
4	17712	41.5	1.3336271612027
4	17760	41.6	1.3336271612027
4	17808	41.7	1.3336271612027
4	17856	41.8	1.3336271612027
4	17904	41.9	1.3336271612027
4	17952	42	1.3336271612027
4	18014	42.1	1.3336271612027
4	18076	42.2	1.3336271612027
4	18138	42.3	1.3336271612027
4	18200	42.4	1.3336271612027
4	18262	42.5	1.3336271612027
4	18324	42.6	1.3336271612027
4	18382	42.7	1.3336271612027
4	18440	42.8	1.3336271612027
4	18502	42.9	1.3336271612027
4	18560	43	1.3336271612027
4	18622	43.1	1.3336271612027
4	18680	43.2	1.3336271612027
4	18738	43.3	1.3336271612027
4	18800	43.4	1.3336271612027
4	18862	43.5	1.3336271612027
4	18920	43.6	1.3336271612027
4	18982	43.7	1.3336271612027
4	19044	43.8	1.3336271612027
4	19106	43.9	1.3336271612027
4	19154	44	1.3336271612027
4	19202	44.1	1.3336271612027
4	19250	44.2	1.3336271612027
4	19298	44.3	1.3336271612027
4	19346	44.4	1.3336271612027
4	19394	44.5	1.3336271612027
4	19442	44.6	1.3336271612027
4	19490	44.7	1.3336271612027
4	19538	44.8	1.3336271612027
4	19600	44.9	1.3336271612027
4	19658	45	1.3336271612027
4	19716	45.1	1.3336271612027
4	19774	45.2	1.3336271612027
4	19832	45.3	1.3336271612027
4	19894	45.4	1.3336271612027
4	19956	45.5	1.3336271612027
4	20018	45.6	1.3336271612027
4	20080	45.7	1.3336271612027
4	20142	45.8	1.3336271612027
4	20204	45.9	1.3336271612027
4	20266	46	1.3336271612027
4	20328	46.1	1.3336271612027
4	20386	46.2	1.3336271612027
4	20448	46.3	1.3336271612027
4	20506	46.4	1.3336271612027
4	20568	46.5	1.3336271612027
4	20630	46.6	1.3336271612027
4	20692	46.7	1.3336271612027
4	20740	46.8	1.3336271612027
4	20788	46.9	1.3336271612027
4	20836	47	1.3336271612027
4	20884	47.1	1.3336271612027
4	20932	47.2	1.3336271612027
4	20980	47.3	1.3336271612027
4	21028	47.4	1.3336271612027
4	21076	47.5	1.3336271612027
4	21124	47.6	1.3336271612027
4	21186	47.7	1.3336271612027
4	21248	47.8	1.3336271612027
4	21306	47.9	1.3336271612027
4	21368	48	1.3336271612027
4	21430	48.1	1.3336271612027
4	21492	48.2	1.3336271612027
4	21550	48.3	1.3336271612027
4	21608	48.4	1.3336271612027
4	21670	48.5	1.3336271612027
4	21732	48.6	1.3336271612027
4	21790	48.7	1.3336271612027
4	21852	48.8	1.3336271612027
4	21914	48.9	1.3336271612027
4	21976	49	1.3336271612027
4	22038	49.1	1.3336271612027
4	22096	49.2	1.3336271612027
4	22154	49.3	1.3336271612027
4	22216	49.4	1.3336271612027
4	22278	49.5	1.3336271612027
4	22326	49.6	1.3336271612027
4	22374	49.7	1.3336271612027
4	22422	49.8	1.3336271612027
4	22470	49.9	1.3336271612027
4	22518	50	1.3336271612027
4	22566	50.1	1.3336271612027
4	22614	50.2	1.3336271612027
4	22662	50.3	1.3336271612027
4	22710	50.4	1.3336271612027
4	22772	50.5	1.3336271612027
4	22834	50.6	1.3336271612027
4	22896	50.7	1.3336271612027
4	22954	50.8	1.3336271612027
4	23016	50.9	1.3336271612027
4	23078	51	1.3336271612027
4	23140	51.1	1.3336271612027
4	23198	51.2	1.3336271612027
4	23260	51.3	1.3336271612027
4	23322	51.4	1.3336271612027
4	23384	51.5	13.020272486822
4	23446	51.6	16.781090070173
4	23479	51.7	19.252415002715
4	23527	51.8	12.245559802693
4	23575	51.9	1.5383337255213
4	23623	52	1.5383337255213
4	23671	52.1	1.5383337255213
4	23719	52.2	1.5383337255213
4	23767	52.3	1.5383337255213
4	23815	52.4	1.5383337255213
4	23863	52.5	1.5383337255213
4	23911	52.6	1.4854485485843
4	23959	52.7	0.973
4	24007	52.8	0.973
4	24055	52.9	0.973
4	24103	53	0.973
4	24151	53.1	1.3336271612027
4	24213	53.2	1.3336271612027
4	24271	53.3	1.3336271612027
4	24329	53.4	1.3336271612027
4	24391	53.5	1.3336271612027
4	24453	53.6	1.3336271612027
4	24511	53.7	1.3336271612027
4	24569	53.8	1.3336271612027
4	24631	53.9	1.3336271612027
4	24689	54	1.3336271612027
4	24747	54.1	1.3336271612027
4	24809	54.2	1.3336271612027
4	24871	54.3	1.3336271612027
4	24919	54.4	1.3336271612027
4	24967	54.5	1.3336271612027
4	25015	54.6	1.3336271612027
4	25063	54.7	1.3336271612027
4	25111	54.8	1.3336271612027
4	25159	54.9	1.3336271612027
4	25207	55	1.3336271612027
4	25255	55.1	1.3336271612027
4	25303	55.2	1.3336271612027
4	25361	55.3	1.3336271612027
4	25423	55.4	1.3336271612027
4	25481	55.5	1.3336271612027
4	25539	55.6	1.3336271612027
4	25601	55.7	1.3336271612027
4	25663	55.8	1.3336271612027
4	25721	55.9	1.3336271612027
4	25783	56	1.3336271612027
4	25845	56.1	1.3336271612027
4	25907	56.2	1.3336271612027
4	25969	56.3	1.3336271612027
4	26027	56.4	1.3336271612027
4	26089	56.5	1.3336271612027
4	26147	56.6	1.3336271612027
4	26209	56.7	1.3336271612027
4	26267	56.8	1.3336271612027
4	26329	56.9	1.3336271612027
4	26391	57	1.3336271612027
4	26453	57.1	1.3336271612027
4	26501	57.2	1.3336271612027
4	26549	57.3	1.3336271612027
4	26597	57.4	1.3336271612027
4	26645	57.5	1.3336271612027
4	26693	57.6	1.3336271612027
4	26741	57.7	1.3336271612027
4	26789	57.8	1.3336271612027
4	26837	57.9	1.3336271612027
4	26885	58	1.3336271612027
4	26947	58.1	1.3336271612027
4	27009	58.2	1.3336271612027
4	27071	58.3	1.3336271612027
4	27129	58.4	1.3336271612027
4	27191	58.5	1.3336271612027
4	27249	58.6	1.3336271612027
4	27311	58.7	1.3336271612027
4	27369	58.8	1.3336271612027
4	27431	58.9	1.3336271612027
4	27493	59	1.3336271612027
4	27555	59.1	1.3336271612027
4	27617	59.2	1.3336271612027
4	27679	59.3	1.3336271612027
4	27737	59.4	1.3336271612027
4	27795	59.5	1.3336271612027
4	27857	59.6	1.3336271612027
4	27919	59.7	1.3336271612027
4	27981	59.8	1.3336271612027
4	28043	59.9	1.3336271612027
4	28091	60	1.3336271612027
4	28139	60.1	1.3336271612027
4	28187	60.2	1.3336271612027
4	28235	60.3	1.3336271612027
4	28283	60.4	1.3336271612027
4	28331	60.5	1.3336271612027
4	28379	60.6	1.3336271612027
4	28427	60.7	1.3336271612027
4	28475	60.8	1.3336271612027
4	28533	60.9	1.3336271612027
4	28595	61	1.3336271612027
4	28657	61.1	1.3336271612027
4	28719	61.2	1.3336271612027
4	28777	61.3	1.3336271612027
4	28839	61.4	1.3336271612027
4	28897	61.5	1.3336271612027
4	28959	61.6	1.3336271612027
4	29021	61.7	1.3336271612027
4	29083	61.8	1.3336271612027
4	29145	61.9	1.3336271612027
4	29207	62	1.3336271612027
4	29265	62.1	1.3336271612027
4	29327	62.2	1.3336271612027
4	29389	62.3	1.3336271612027
4	29451	62.4	1.3336271612027
4	29513	62.5	1.3336271612027
4	29575	62.6	1.3336271612027
4	29633	62.7	1.3336271612027
4	29681	62.8	1.3336271612027
4	29729	62.9	1.3336271612027
4	29777	63	1.3336271612027
4	29825	63.1	1.3336271612027
4	29873	63.2	1.3336271612027
4	29921	63.3	1.3336271612027
4	29969	63.4	1.3336271612027
4	30017	63.5	1.3336271612027
4	30065	63.6	1.3336271612027
4	30127	63.7	1.3336271612027
4	30189	63.8	1.3336271612027
4	30251	63.9	1.3336271612027
4	30313	64	1.3336271612027
4	30375	64.1	1.3336271612027
4	30433	64.2	1.3336271612027
4	30491	64.3	1.3336271612027
4	30553	64.4	1.3336271612027
4	30611	64.5	1.3336271612027
4	30673	64.6	1.3336271612027
4	30735	64.7	1.3336271612027
4	30797	64.8	1.3336271612027
4	30859	64.9	1.3336271612027
4	30921	65	1.3336271612027
4	30983	65.1	1.3336271612027
4	31041	65.2	1.3336271612027
4	31103	65.3	1.3336271612027
4	31165	65.4	1.3336271612027
4	31227	65.5	1.3336271612027
4	31275	65.6	1.3336271612027
4	31323	65.7	1.3336271612027
4	31371	65.8	1.3336271612027
4	31419	65.9	1.3336271612027
4	31467	66	1.3336271612027
4	31515	66.1	1.3336271612027
4	31563	66.2	1.3336271612027
4	31611	66.3	1.3336271612027
4	31659	66.4	1.3336271612027
4	31721	66.5	1.3336271612027
4	31779	66.6	1.3336271612027
4	31841	66.7	1.3336271612027
4	31899	66.8	1.3336271612027
4	31961	66.9	1.3336271612027
4	32023	67	1.3336271612027
4	32081	67.1	1.3336271612027
4	32143	67.2	1.3336271612027
4	32205	67.3	1.3336271612027
4	32263	67.4	1.3336271612027
4	32325	67.5	1.3336271612027
4	32383	67.6	1.3336271612027
4	32445	67.7	1.3336271612027
4	32507	67.8	1.3336271612027
4	32565	67.9	1.3336271612027
4	32627	68	1.3336271612027
4	32689	68.1	1.3336271612027
4	32751	68.2	1.3336271612027
4	32813	68.3	1.3336271612027
4	32861	68.4	1.3336271612027
4	32909	68.5	1.3336271612027
4	32957	68.6	1.3336271612027
4	33005	68.7	1.3336271612027
4	33053	68.8	1.3336271612027
4	33101	68.9	1.3336271612027
4	33149	69	1.3336271612027
4	33197	69.1	1.3336271612027
4	33245	69.2	1.3336271612027
4	33307	69.3	1.3336271612027
4	33365	69.4	1.3336271612027
4	33427	69.5	1.3336271612027
4	33489	69.6	1.3336271612027
4	33551	69.7	1.3336271612027
4	33613	69.8	1.3336271612027
4	33675	69.9	1.3336271612027
4	33737	70	1.3336271612027
4	33799	70.1	1.3336271612027
4	33857	70.2	1.3336271612027
4	33919	70.3	1.3336271612027
4	33981	70.4	1.3336271612027
4	34043	70.5	1.3336271612027
4	34105	70.6	1.3336271612027
4	34167	70.7	1.3336271612027
4	34225	70.8	1.3336271612027
4	34287	70.9	1.3336271612027
4	34349	71	1.3336271612027
4	34407	71.1	1.3336271612027
4	34455	71.2	1.3336271612027
4	34503	71.3	1.3336271612027
4	34551	71.4	1.3336271612027
4	34599	71.5	1.3336271612027
4	34647	71.6	1.3336271612027
4	34695	71.7	1.3336271612027
4	34743	71.8	1.3336271612027
4	34791	71.9	1.3336271612027
4	34839	72	1.3336271612027
4	34901	72.1	1.3336271612027
4	34963	72.2	1.3336271612027
4	35025	72.3	1.3336271612027
4	35083	72.4	1.3336271612027
4	35141	72.5	1.3336271612027
4	35199	72.6	1.3336271612027
4	35261	72.7	1.3336271612027
4	35323	72.8	1.3336271612027
4	35385	72.9	1.3336271612027
4	35447	73	1.3336271612027
4	35509	73.1	1.3336271612027
4	35571	73.2	1.3336271612027
4	35633	73.3	1.3336271612027
4	35695	73.4	1.3336271612027
4	35753	73.5	1.3336271612027
4	35815	73.6	1.3336271612027
4	35877	73.7	1.3336271612027
4	35935	73.8	1.3336271612027
4	35997	73.9	1.3336271612027
4	36045	74	1.3336271612027
4	36093	74.1	1.3336271612027
4	36141	74.2	1.3336271612027
4	36189	74.3	1.3336271612027
4	36237	74.4	1.3336271612027
4	36285	74.5	1.3336271612027
4	36333	74.6	1.3336271612027
4	36381	74.7	1.3336271612027
4	36429	74.8	1.3336271612027
4	36491	74.9	1.3336271612027
4	36553	75	1.3336271612027
4	36615	75.1	1.3336271612027
4	36673	75.2	1.3336271612027
4	36735	75.3	1.3336271612027
4	36793	75.4	1.3336271612027
4	36855	75.5	1.3336271612027
4	36917	75.6	1.3336271612027
4	36979	75.7	1.3336271612027
4	37041	75.8	1.3336271612027
4	37103	75.9	1.3336271612027
4	37165	76	1.3336271612027
4	37227	76.1	1.3336271612027
4	37289	76.2	1.3336271612027
4	37347	76.3	1.3336271612027
4	37409	76.4	1.3336271612027
4	37467	76.5	1.3336271612027
4	37529	76.6	1.3336271612027
4	37591	76.7	1.3336271612027
4	37639	76.8	1.3336271612027
4	37687	76.9	1.3336271612027
4	37735	77	1.3336271612027
4	37783	77.1	1.3336271612027
4	37831	77.2	1.3336271612027
4	37879	77.3	1.3336271612027
4	37927	77.4	1.3336271612027
4	37975	77.5	1.3336271612027
4	38023	77.6	1.3336271612027
4	38081	77.7	1.3336271612027
4	38143	77.8	1.3336271612027
4	38201	77.9	1.3336271612027
4	38263	78	1.3336271612027
4	38325	78.1	1.3336271612027
4	38387	78.2	1.3336271612027
4	38445	78.3	1.3336271612027
4	38507	78.4	1.3336271612027
4	38569	78.5	1.3336271612027
4	38627	78.6	1.3336271612027
4	38689	78.7	1.3336271612027
4	38751	78.8	1.3336271612027
4	38809	78.9	1.3336271612027
4	38871	79	1.3336271612027
4	38933	79.1	1.3336271612027
4	38995	79.2	1.3336271612027
4	39057	79.3	1.3336271612027
4	39119	79.4	1.3336271612027
4	39181	79.5	1.3336271612027
4	39229	79.6	1.3336271612027
4	39277	79.7	1.3336271612027
4	39325	79.8	1.3336271612027
4	39373	79.9	1.3336271612027
4	39421	80	1.3336271612027
4	39469	80.1	1.3336271612027
4	39517	80.2	1.3336271612027
4	39565	80.3	1.3336271612027
4	39613	80.4	1.3336271612027
4	39671	80.5	1.3336271612027
4	39733	80.6	1.3336271612027
4	39795	80.7	1.3336271612027
4	39857	80.8	1.3336271612027
4	39919	80.9	1.3336271612027
4	39981	81	1.3336271612027
4	40043	81.1	1.3336271612027
4	40105	81.2	1.3336271612027
4	40167	81.3	1.3336271612027
4	40229	81.4	1.3336271612027
4	40291	81.5	1.3336271612027
4	40353	81.6	1.3336271612027
4	40415	81.7	1.3336271612027
4	40477	81.8	1.3336271612027
4	40535	81.9	1.3336271612027
4	40593	82	1.3336271612027
4	40655	82.1	1.3336271612027
4	40713	82.2	1.3336271612027
4	40775	82.3	1.3336271612027
4	40823	82.4	1.3336271612027
4	40871	82.5	1.3336271612027
4	40919	82.6	1.3336271612027
4	40967	82.7	1.3336271612027
4	41015	82.8	1.3336271612027
4	41063	82.9	1.3336271612027
4	41111	83	1.3336271612027
4	41159	83.1	1.3336271612027
4	41207	83.2	1.3336271612027
4	41269	83.3	1.3336271612027
4	41327	83.4	1.3336271612027
4	41389	83.5	1.3336271612027
4	41451	83.6	1.3336271612027
4	41509	83.7	1.3336271612027
4	41571	83.8	1.3336271612027
4	41629	83.9	1.3336271612027
4	41691	84	1.3336271612027
4	41749	84.1	1.3336271612027
4	41811	84.2	1.3336271612027
4	41873	84.3	1.3336271612027
4	41935	84.4	1.3336271612027
4	41997	84.5	1.3336271612027
4	42059	84.6	1.3336271612027
4	42121	84.7	1.3336271612027
4	42183	84.8	1.3336271612027
4	42245	84.9	1.3336271612027
4	42303	85	1.3336271612027
4	42365	85.1	1.3336271612027
4	42413	85.2	1.3336271612027
4	42461	85.3	1.3336271612027
4	42509	85.4	1.3336271612027
4	42557	85.5	1.3336271612027
4	42605	85.6	1.3336271612027
4	42653	85.7	1.3336271612027
4	42701	85.8	1.3336271612027
4	42749	85.9	1.3336271612027
4	42797	86	1.3336271612027
4	42859	86.1	1.3336271612027
4	42921	86.2	1.3336271612027
4	42983	86.3	1.3336271612027
4	43041	86.4	1.3336271612027
4	43103	86.5	1.3336271612027
4	43165	86.6	1.3336271612027
4	43223	86.7	1.3336271612027
4	43285	86.8	1.3336271612027
4	43347	86.9	1.3336271612027
4	43409	87	1.3336271612027
4	43471	87.1	1.3336271612027
4	43533	87.2	1.3336271612027
4	43591	87.3	1.3336271612027
4	43653	87.4	1.3336271612027
4	43715	87.5	1.3336271612027
4	43777	87.6	1.3336271612027
4	43839	87.7	1.3336271612027
4	43897	87.8	1.3336271612027
4	43955	87.9	1.3336271612027
4	44003	88	1.3336271612027
4	44051	88.1	1.3336271612027
4	44099	88.2	1.3336271612027
4	44147	88.3	1.3336271612027
4	44195	88.4	1.3336271612027
4	44243	88.5	1.3336271612027
4	44291	88.6	1.3336271612027
4	44339	88.7	1.3336271612027
4	44387	88.8	1.3336271612027
4	44445	88.9	1.3336271612027
4	44503	89	1.3336271612027
4	44565	89.1	1.3336271612027
4	44627	89.2	1.3336271612027
4	44689	89.3	1.3336271612027
4	44751	89.4	1.3336271612027
4	44813	89.5	1.3336271612027
4	44861	89.6	1.3336271612027
4	44909	89.7	1.3336271612027
4	44957	89.8	1.3336271612027
4	45005	89.9	1.3336271612027
4	45053	90	1.3336271612027
4	45101	90.1	1.3336271612027
4	45149	90.2	1.3336271612027
4	45197	90.3	1.3336271612027
4	45245	90.4	1.3336271612027
4	45293	90.5	1.3336271612027
4	45341	90.6	1.3336271612027
4	45389	90.7	1.3336271612027
4	45437	90.8	1.3336271612027
4	45485	90.9	1.3336271612027
4	45533	91	1.3336271612027
4	45581	91.1	1.3336271612027
4	45629	91.2	1.3336271612027
4	45677	91.3	1.3336271612027
4	45725	91.4	1.3336271612027
4	45773	91.5	1.3336271612027
4	45821	91.6	1.3336271612027
4	45869	91.7	1.3336271612027
4	45917	91.8	1.3336271612027
4	45965	91.9	1.3336271612027
4	46013	92	1.3336271612027
4	46061	92.1	1.3336271612027
4	46109	92.2	1.3336271612027
4	46157	92.3	1.3336271612027
4	46205	92.4	1.3336271612027
4	46253	92.5	1.3336271612027
4	46301	92.6	1.3336271612027
4	46349	92.7	1.3336271612027
4	46411	92.8	1.3336271612027
4	46473	92.9	1.3336271612027
4	46535	93	1.3336271612027
4	46593	93.1	1.3336271612027
4	46655	93.2	1.3336271612027
4	46717	93.3	1.3336271612027
4	46779	93.4	1.3336271612027
4	46841	93.5	1.3336271612027
4	46889	93.6	1.3336271612027
4	46937	93.7	1.3336271612027
4	46985	93.8	1.3336271612027
4	47033	93.9	1.3336271612027
4	47081	94	1.3336271612027
4	47129	94.1	1.3336271612027
4	47177	94.2	1.3336271612027
4	47225	94.3	1.3336271612027
4	47273	94.4	1.3336271612027
4	47331	94.5	1.3336271612027
4	47389	94.6	1.3336271612027
4	47451	94.7	1.3336271612027
4	47509	94.8	1.3336271612027
4	47571	94.9	1.3336271612027
4	47629	95	1.3336271612027
4	47691	95.1	1.3336271612027
4	47739	95.2	1.3336271612027
4	47787	95.3	1.3336271612027
4	47835	95.4	1.3336271612027
4	47883	95.5	1.3336271612027
4	47931	95.6	1.3336271612027
4	47979	95.7	1.3336271612027
4	48027	95.8	1.3336271612027
4	48075	95.9	1.3336271612027
4	48123	96	1.3336271612027
4	48171	96.1	1.3336271612027
4	48219	96.2	1.3336271612027
4	48267	96.3	1.3336271612027
4	48315	96.4	1.3336271612027
4	48363	96.5	1.3336271612027
4	48411	96.6	1.3336271612027
4	48459	96.7	1.3336271612027
4	48507	96.8	1.3336271612027
4	48555	96.9	1.3336271612027
4	48603	97	1.3336271612027
4	48651	97.1	1.3336271612027
4	48699	97.2	1.3336271612027
4	48747	97.3	1.3336271612027
4	48795	97.4	1.3336271612027
4	48843	97.5	1.3336271612027
4	48891	97.6	1.3336271612027
4	48939	97.7	1.3336271612027
4	48987	97.8	1.3336271612027
4	49035	97.9	1.3336271612027
4	49083	98	1.3336271612027
4	49131	98.1	1.3336271612027
4	49179	98.2	1.3336271612027
4	49227	98.3	1.3336271612027
4	49289	98.4	1.3336271612027
4	49347	98.5	1.3336271612027
4	49405	98.6	1.3336271612027
4	49467	98.7	1.3336271612027
4	49529	98.8	1.3336271612027
4	49591	98.9	1.3336271612027
4	49649	99	1.3336271612027
4	49711	99.1	1.3336271612027
4	49759	99.2	1.3336271612027
4	49807	99.3	1.3336271612027
4	49855	99.4	1.3336271612027
4	49903	99.5	1.3336271612027
4	49951	99.6	1.3336271612027
4	49999	99.7	1.3336271612027
4	50047	99.8	1.3336271612027
4	50095	99.9	1.3336271612027
4	50143	100	1.3336271612027
4	50205	100.1	1.3336271612027
4	50263	100.2	1.3336271612027
4	50325	100.3	1.3336271612027
4	50387	100.4	1.3336271612027
4	50449	100.5	1.3336271612027
4	50511	100.6	1.3336271612027
4	50573	100.7	1.3336271612027
4	50635	100.8	1.3336271612027
4	50697	100.9	1.3336271612027
4	50759	101	1.3336271612027
4	50821	101.1	1.3336271612027
4	50879	101.2	1.3336271612027
4	50937	101.3	1.3336271612027
4	50999	101.4	1.3336271612027
4	51061	101.5	1.3336271612027
4	51119	101.6	1.3336271612027
4	51177	101.7	1.3336271612027
4	51239	101.8	1.3336271612027
4	51301	101.9	1.3336271612027
4	51349	102	1.3336271612027
4	51397	102.1	1.3336271612027
4	51445	102.2	1.3336271612027
4	51493	102.3	1.3336271612027
4	51541	102.4	1.3336271612027
4	51589	102.5	1.3336271612027
4	51637	102.6	1.3336271612027
4	51685	102.7	1.3336271612027
4	51733	102.8	1.3336271612027
4	51795	102.9	1.3336271612027
4	51857	103	1.3336271612027
4	51919	103.1	1.3336271612027
4	51981	103.2	1.3336271612027
4	52039	103.3	1.3336271612027
4	52097	103.4	1.3336271612027
4	52159	103.5	1.3336271612027
4	52221	103.6	1.3336271612027
4	52283	103.7	1.3336271612027
4	52341	103.8	1.3336271612027
4	52403	103.9	1.3336271612027
4	52465	104	1.3336271612027
4	52523	104.1	1.3336271612027
4	52585	104.2	1.3336271612027
4	52647	104.3	1.3336271612027
4	52709	104.4	1.3336271612027
4	52771	104.5	1.3336271612027
4	52833	104.6	1.3336271612027
4	52891	104.7	1.3336271612027
4	52939	104.8	1.3336271612027
4	52987	104.9	1.3336271612027
4	53035	105	1.3336271612027
4	53083	105.1	1.3336271612027
4	53131	105.2	1.3336271612027
4	53179	105.3	1.3336271612027
4	53227	105.4	1.3336271612027
4	53275	105.5	1.3336271612027
4	53323	105.6	1.3336271612027
4	53385	105.7	1.3336271612027
4	53443	105.8	1.3336271612027
4	53505	105.9	1.3336271612027
4	53567	106	1.3336271612027
4	53629	106.1	1.3336271612027
4	53691	106.2	1.3336271612027
4	53753	106.3	1.3336271612027
4	53815	106.4	1.3336271612027
4	53877	106.5	1.3336271612027
4	53939	106.6	1.3336271612027
4	54001	106.7	1.3336271612027
4	54063	106.8	1.3336271612027
4	54121	106.9	1.3336271612027
4	54183	107	1.3336271612027
4	54245	107.1	1.3336271612027
4	54307	107.2	1.3336271612027
4	54369	107.3	1.3336271612027
4	54431	107.4	1.3336271612027
4	54493	107.5	1.3336271612027
4	54541	107.6	1.3336271612027
4	54589	107.7	1.3336271612027
4	54637	107.8	1.3336271612027
4	54685	107.9	1.3336271612027
4	54733	108	1.3336271612027
4	54781	108.1	1.3336271612027
4	54829	108.2	1.3336271612027
4	54877	108.3	1.3336271612027
4	54925	108.4	1.3336271612027
4	54987	108.5	1.3336271612027
4	55049	108.6	1.3336271612027
4	55111	108.7	1.3336271612027
4	55169	108.8	1.3336271612027
4	55231	108.9	1.3336271612027
4	55293	109	1.3336271612027
4	55355	109.1	1.3336271612027
4	55413	109.2	1.3336271612027
4	55475	109.3	1.3336271612027
4	55537	109.4	1.3336271612027
4	55599	109.5	1.3336271612027
4	55661	109.6	1.3336271612027
4	55723	109.7	1.3336271612027
4	55781	109.8	1.3336271612027
4	55843	109.9	1.3336271612027
4	55901	110	1.3336271612027
4	55963	110.1	1.3336271612027
4	56021	110.2	1.3336271612027
4	56083	110.3	1.3336271612027
4	56131	110.4	1.3336271612027
4	56179	110.5	1.3336271612027
4	56227	110.6	1.3336271612027
4	56275	110.7	1.3336271612027
4	56323	110.8	1.3336271612027
4	56371	110.9	1.3336271612027
4	56419	111	1.3336271612027
4	56467	111.1	1.3336271612027
4	56515	111.2	1.3336271612027
4	56577	111.3	1.3336271612027
4	56639	111.4	1.3336271612027
4	56697	111.5	1.3336271612027
4	56755	111.6	1.3336271612027
4	56817	111.7	1.3336271612027
4	56879	111.8	1.3336271612027
4	56941	111.9	1.3336271612027
4	56999	112	1.3336271612027
4	57061	112.1	1.3336271612027
4	57119	112.2	1.3336271612027
4	57181	112.3	1.3336271612027
4	57239	112.4	1.3336271612027
4	57297	112.5	1.3336271612027
4	57359	112.6	1.3336271612027
4	57417	112.7	1.3336271612027
4	57479	112.8	1.3336271612027
4	57541	112.9	1.3336271612027
4	57603	113	1.3336271612027
4	57665	113.1	1.3336271612027
4	57713	113.2	1.3336271612027
4	57761	113.3	1.3336271612027
4	57809	113.4	1.3336271612027
4	57857	113.5	1.3336271612027
4	57905	113.6	1.3336271612027
4	57953	113.7	1.3336271612027
4	58001	113.8	1.3336271612027
4	58049	113.9	1.3336271612027
4	58097	114	1.3336271612027
4	58159	114.1	1.3336271612027
4	58221	114.2	1.3336271612027
4	58283	114.3	1.3336271612027
4	58345	114.4	1.3336271612027
4	58407	114.5	1.3336271612027
4	58469	114.6	1.3336271612027
4	58527	114.7	1.3336271612027
4	58589	114.8	1.3336271612027
4	58651	114.9	1.3336271612027
4	58709	115	1.3336271612027
4	58771	115.1	1.3336271612027
4	58833	115.2	1.3336271612027
4	58895	115.3	1.3336271612027
4	58953	115.4	1.3336271612027
4	59015	115.5	1.3336271612027
4	59077	115.6	1.3336271612027
4	59139	115.7	1.3336271612027
4	59201	115.8	1.3336271612027
4	59263	115.9	1.3336271612027
4	59311	116	1.3336271612027
4	59359	116.1	1.3336271612027
4	59407	116.2	1.3336271612027
4	59455	116.3	1.3336271612027
4	59503	116.4	1.3336271612027
4	59551	116.5	1.3336271612027
4	59599	116.6	1.3336271612027
4	59647	116.7	1.3336271612027
4	59695	116.8	1.3336271612027
4	59757	116.9	1.3336271612027
4	59815	117	1.3336271612027
4	59877	117.1	1.3336271612027
4	59939	117.2	1.3336271612027
4	60001	117.3	1.3336271612027
4	60063	117.4	1.3336271612027
4	60125	117.5	1.3336271612027
4	60183	117.6	1.3336271612027
4	60241	117.7	1.3336271612027
4	60303	117.8	1.3336271612027
4	60361	117.9	1.3336271612027
4	60423	118	1.3336271612027
4	60485	118.1	1.3336271612027
4	60547	118.2	1.3336271612027
4	60609	118.3	1.3336271612027
4	60667	118.4	1.3336271612027
4	60729	118.5	1.3336271612027
4	60787	118.6	1.3336271612027
4	60845	118.7	1.3336271612027
4	60893	118.8	1.3336271612027
4	60941	118.9	1.3336271612027
4	60989	119	1.3336271612027
4	61037	119.1	1.3336271612027
4	61085	119.2	1.3336271612027
4	61133	119.3	1.3336271612027
4	61181	119.4	1.3336271612027
4	61229	119.5	1.3336271612027
4	61277	119.6	1.3336271612027
4	61335	119.7	1.3336271612027
4	61393	119.8	1.3336271612027
4	61455	119.9	1.3336271612027
4	61517	120	1.3336271612027
4	61579	120.1	1.3336271612027
4	61641	120.2	1.3336271612027
4	61703	120.3	1.3336271612027
4	61761	120.4	1.3336271612027
4	61823	120.5	1.3336271612027
4	61885	120.6	1.3336271612027
4	61943	120.7	1.3336271612027
4	62005	120.8	1.3336271612027
4	62067	120.9	1.3336271612027
4	62129	121	1.3336271612027
4	62191	121.1	1.3336271612027
4	62249	121.2	1.3336271612027
4	62307	121.3	1.3336271612027
4	62369	121.4	1.3336271612027
4	62431	121.5	1.3336271612027
4	62479	121.6	1.3336271612027
4	62527	121.7	1.3336271612027
4	62575	121.8	1.3336271612027
4	62623	121.9	1.3336271612027
4	62671	122	1.3336271612027
4	62719	122.1	1.3336271612027
4	62767	122.2	1.3336271612027
4	62815	122.3	1.3336271612027
4	62863	122.4	1.3336271612027
4	62925	122.5	1.3336271612027
4	62987	122.6	1.3336271612027
4	63049	122.7	1.3336271612027
4	63111	122.8	1.3336271612027
4	63173	122.9	1.3336271612027
4	63235	123	1.3336271612027
4	63297	123.1	1.3336271612027
4	63359	123.2	1.3336271612027
4	63417	123.3	1.3336271612027
4	63475	123.4	1.3336271612027
4	63537	123.5	1.3336271612027
4	63599	123.6	1.3336271612027
4	63661	123.7	1.3336271612027
4	63723	123.8	1.3336271612027
4	63785	123.9	1.3336271612027
4	63847	124	1.3336271612027
4	63909	124.1	1.3336271612027
4	63967	124.2	1.3336271612027
4	64025	124.3	1.3336271612027
4	64073	124.4	1.3336271612027
4	64121	124.5	1.3336271612027
4	64169	124.6	1.3336271612027
4	64217	124.7	1.3336271612027
4	64265	124.8	1.3336271612027
4	64313	124.9	1.3336271612027
4	64361	125	1.3336271612027
4	64409	125.1	1.3336271612027
4	64457	125.2	1.3336271612027
4	64515	125.3	1.3336271612027
4	64577	125.4	1.3336271612027
4	64639	125.5	1.3336271612027
4	64701	125.6	1.3336271612027
4	64759	125.7	1.3336271612027
4	64821	125.8	1.3336271612027
4	64883	125.9	1.3336271612027
4	64945	126	1.3336271612027
4	65007	126.1	1.3336271612027
4	65069	126.2	1.3336271612027
4	65127	126.3	1.3336271612027
4	65189	126.4	1.3336271612027
4	65251	126.5	1.3336271612027
4	65313	126.6	1.3336271612027
4	65375	126.7	1.3336271612027
4	65437	126.8	1.3336271612027
4	65499	126.9	1.3336271612027
4	65561	127	1.3336271612027
4	65623	127.1	1.3336271612027
4	65671	127.2	1.3336271612027
4	65719	127.3	1.3336271612027
4	65767	127.4	1.3336271612027
4	65815	127.5	1.3336271612027
4	65863	127.6	1.3336271612027
4	65911	127.7	1.3336271612027
4	65959	127.8	1.3336271612027
4	66007	127.9	1.3336271612027
4	66055	128	1.3336271612027
4	66117	128.1	1.3336271612027
4	66175	128.2	1.3336271612027
4	66233	128.3	1.3336271612027
4	66295	128.4	1.3336271612027
4	66353	128.5	1.3336271612027
4	66415	128.6	1.3336271612027
4	66477	128.7	1.3336271612027
4	66539	128.8	1.3336271612027
4	66601	128.9	1.3336271612027
4	66663	129	1.3336271612027
4	66725	129.1	1.3336271612027
4	66787	129.2	1.3336271612027
4	66849	129.3	1.3336271612027
4	66911	129.4	1.3336271612027
4	66973	129.5	1.3336271612027
4	67031	129.6	1.3336271612027
4	67089	129.7	1.3336271612027
4	67147	129.8	1.3336271612027
4	67209	129.9	1.3336271612027
4	67257	130	1.3336271612027
4	67305	130.1	1.3336271612027
4	67353	130.2	1.3336271612027
4	67401	130.3	1.3336271612027
4	67449	130.4	1.3336271612027
4	67497	130.5	1.3336271612027
4	67545	130.6	1.3336271612027
4	67593	130.7	1.3336271612027
4	67641	130.8	1.3336271612027
4	67703	130.9	1.3336271612027
4	67765	131	1.3336271612027
4	67827	131.1	1.3336271612027
4	67889	131.2	1.3336271612027
4	67951	131.3	1.3336271612027
4	68013	131.4	1.3336271612027
4	68071	131.5	1.3336271612027
4	68119	131.6	1.3336271612027
4	68167	131.7	1.3336271612027
4	68215	131.8	1.3336271612027
4	68263	131.9	1.3336271612027
4	68311	132	1.3336271612027
4	68359	132.1	1.3336271612027
4	68407	132.2	1.3336271612027
4	68455	132.3	1.3336271612027
4	68503	132.4	1.3336271612027
4	68551	132.5	1.3336271612027
4	68599	132.6	1.3336271612027
4	68647	132.7	1.3336271612027
4	68695	132.8	1.3336271612027
4	68743	132.9	1.3336271612027
4	68791	133	1.3336271612027
4	68839	133.1	1.3336271612027
4	68887	133.2	1.3336271612027
4	68935	133.3	1.3336271612027
4	68983	133.4	1.3336271612027
4	69031	133.5	1.3336271612027
4	69079	133.6	1.3336271612027
4	69127	133.7	1.3336271612027
4	69175	133.8	1.3336271612027
4	69223	133.9	1.3336271612027
4	69271	134	1.3336271612027
4	69319	134.1	1.3336271612027
4	69367	134.2	1.3336271612027
4	69415	134.3	1.3336271612027
4	69463	134.4	1.3336271612027
4	69511	134.5	1.3336271612027
4	69559	134.6	1.3336271612027
4	69607	134.7	1.3336271612027
4	69669	134.8	1.3336271612027
4	69731	134.9	1.3336271612027
4	69789	135	1.3336271612027
4	69851	135.1	1.3336271612027
4	69913	135.2	1.3336271612027
4	69975	135.3	1.3336271612027
4	70037	135.4	1.3336271612027
4	70099	135.5	1.3336271612027
4	70147	135.6	1.3336271612027
4	70195	135.7	1.3336271612027
4	70243	135.8	1.3336271612027
4	70291	135.9	1.3336271612027
4	70339	136	1.3336271612027
4	70387	136.1	1.3336271612027
4	70435	136.2	1.3336271612027
4	70483	136.3	1.3336271612027
4	70531	136.4	1.3336271612027
4	70593	136.5	1.3336271612027
4	70655	136.6	1.3336271612027
4	70717	136.7	1.3336271612027
4	70779	136.8	1.3336271612027
4	70841	136.9	1.3336271612027
4	70903	137	1.3336271612027
4	70961	137.1	1.3336271612027
4	71009	137.2	1.3336271612027
4	71057	137.3	1.3336271612027
4	71105	137.4	1.3336271612027
4	71153	137.5	1.3336271612027
4	71201	137.6	1.3336271612027
4	71249	137.7	1.3336271612027
4	71297	137.8	1.3336271612027
4	71345	137.9	1.3336271612027
4	71393	138	1.3336271612027
4	71441	138.1	1.3336271612027
4	71489	138.2	1.3336271612027
4	71537	138.3	1.3336271612027
4	71585	138.4	1.3336271612027
4	71633	138.5	1.3336271612027
4	71681	138.6	1.3336271612027
4	71729	138.7	1.3336271612027
4	71777	138.8	1.3336271612027
4	71825	138.9	1.3336271612027
4	71873	139	1.3336271612027
4	71921	139.1	1.3336271612027
4	71969	139.2	1.3336271612027
4	72017	139.3	1.3336271612027
4	72065	139.4	1.3336271612027
4	72113	139.5	1.3336271612027
4	72161	139.6	1.3336271612027
4	72209	139.7	1.3336271612027
4	72257	139.8	1.3336271612027
4	72305	139.9	1.3336271612027
4	72353	140	1.3336271612027
4	72401	140.1	1.3336271612027
4	72449	140.2	1.3336271612027
4	72497	140.3	1.3336271612027
4	72555	140.4	1.3336271612027
4	72613	140.5	1.3336271612027
4	72671	140.6	1.3336271612027
4	72733	140.7	1.3336271612027
4	72795	140.8	1.3336271612027
4	72857	140.9	1.3336271612027
4	72919	141	1.3336271612027
4	72981	141.1	1.3336271612027
4	73029	141.2	1.3336271612027
4	73077	141.3	1.3336271612027
4	73125	141.4	1.3336271612027
4	73173	141.5	1.3336271612027
4	73221	141.6	1.3336271612027
4	73269	141.7	1.3336271612027
4	73317	141.8	1.3336271612027
4	73365	141.9	1.3336271612027
4	73413	142	1.3336271612027
4	73471	142.1	1.3336271612027
4	73533	142.2	1.3336271612027
4	73595	142.3	1.3336271612027
4	73653	142.4	1.3336271612027
4	73715	142.5	1.3336271612027
4	73777	142.6	1.3336271612027
4	73835	142.7	1.3336271612027
4	73893	142.8	1.3336271612027
4	73955	142.9	1.3336271612027
4	74017	143	1.3336271612027
4	74075	143.1	1.3336271612027
4	74137	143.2	1.3336271612027
4	74199	143.3	1.3336271612027
4	74261	143.4	1.3336271612027
4	74323	143.5	1.3336271612027
4	74385	143.6	1.3336271612027
4	74447	143.7	1.3336271612027
4	74509	143.8	1.3336271612027
4	74567	143.9	1.3336271612027
4	74615	144	1.3336271612027
4	74663	144.1	1.3336271612027
4	74711	144.2	1.3336271612027
4	74759	144.3	1.3336271612027
4	74807	144.4	1.3336271612027
4	74855	144.5	1.3336271612027
4	74903	144.6	1.3336271612027
4	74951	144.7	1.3336271612027
4	74999	144.8	1.3336271612027
4	75061	144.9	1.3336271612027
4	75123	145	1.3336271612027
4	75181	145.1	1.3336271612027
4	75239	145.2	1.3336271612027
4	75301	145.3	1.3336271612027
4	75363	145.4	1.3336271612027
4	75425	145.5	1.3336271612027
4	75483	145.6	1.3336271612027
4	75545	145.7	1.3336271612027
4	75607	145.8	1.3336271612027
4	75669	145.9	1.3336271612027
4	75731	146	1.3336271612027
4	75793	146.1	1.3336271612027
4	75851	146.2	1.3336271612027
4	75913	146.3	1.3336271612027
4	75971	146.4	1.3336271612027
4	76033	146.5	1.3336271612027
4	76095	146.6	1.3336271612027
4	76157	146.7	1.3336271612027
4	76205	146.8	1.3336271612027
4	76253	146.9	1.3336271612027
4	76301	147	1.3336271612027
4	76349	147.1	1.3336271612027
4	76397	147.2	1.3336271612027
4	76445	147.3	1.3336271612027
4	76493	147.4	1.3336271612027
4	76541	147.5	1.3336271612027
4	76589	147.6	1.3336271612027
4	76651	147.7	1.3336271612027
4	76709	147.8	1.3336271612027
4	76771	147.9	1.3336271612027
4	76833	148	1.3336271612027
4	76895	148.1	1.3336271612027
4	76957	148.2	1.3336271612027
4	77015	148.3	1.3336271612027
4	77077	148.4	1.3336271612027
4	77139	148.5	1.3336271612027
4	77201	148.6	1.3336271612027
4	77263	148.7	1.3336271612027
4	77325	148.8	1.3336271612027
4	77387	148.9	1.3336271612027
4	77449	149	1.3336271612027
4	77511	149.1	1.3336271612027
4	77573	149.2	1.3336271612027
4	77635	149.3	1.3336271612027
4	77697	149.4	1.3336271612027
4	77759	149.5	1.3336271612027
4	77807	149.6	1.3336271612027
4	77855	149.7	1.3336271612027
4	77903	149.8	1.3336271612027
4	77951	149.9	1.3336271612027
4	77999	150	1.3336271612027
4	78047	150.1	1.3336271612027
4	78095	150.2	1.3336271612027
4	78143	150.3	1.3336271612027
4	78191	150.4	1.3336271612027
4	78253	150.5	1.3336271612027
4	78315	150.6	1.3336271612027
4	78373	150.7	1.3336271612027
4	78431	150.8	1.3336271612027
4	78493	150.9	1.3336271612027
4	78551	151	1.3336271612027
4	78613	151.1	1.3336271612027
4	78675	151.2	1.3336271612027
4	78737	151.3	1.3336271612027
4	78799	151.4	1.3336271612027
4	78857	151.5	1.3336271612027
4	78915	151.6	1.3336271612027
4	78977	151.7	1.3336271612027
4	79039	151.8	1.3336271612027
4	79097	151.9	1.3336271612027
4	79159	152	1.3336271612027
4	79221	152.1	1.3336271612027
4	79279	152.2	1.3336271612027
4	79341	152.3	1.3336271612027
4	79389	152.4	1.3336271612027
4	79437	152.5	1.3336271612027
4	79485	152.6	1.3336271612027
4	79533	152.7	1.3336271612027
4	79581	152.8	1.3336271612027
4	79629	152.9	1.3336271612027
4	79677	153	1.3336271612027
4	79725	153.1	1.3336271612027
4	79773	153.2	1.3336271612027
4	79835	153.3	1.3336271612027
4	79893	153.4	1.3336271612027
4	79951	153.5	1.3336271612027
4	80013	153.6	1.3336271612027
4	80075	153.7	1.3336271612027
4	80133	153.8	1.3336271612027
4	80191	153.9	1.3336271612027
4	80253	154	1.3336271612027
4	80315	154.1	1.3336271612027
4	80377	154.2	1.3336271612027
4	80439	154.3	1.3336271612027
4	80501	154.4	1.3336271612027
4	80563	154.5	1.3336271612027
4	80621	154.6	1.3336271612027
4	80683	154.7	1.3336271612027
4	80745	154.8	1.3336271612027
4	80807	154.9	1.3336271612027
4	80865	155	1.3336271612027
4	80927	155.1	1.3336271612027
4	80975	155.2	1.3336271612027
4	81023	155.3	1.3336271612027
4	81071	155.4	1.3336271612027
4	81119	155.5	1.3336271612027
4	81167	155.6	1.3336271612027
4	81215	155.7	1.3336271612027
4	81263	155.8	1.3336271612027
4	81311	155.9	1.3336271612027
4	81359	156	1.3336271612027
4	81421	156.1	1.3336271612027
4	81483	156.2	1.3336271612027
4	81541	156.3	1.3336271612027
4	81603	156.4	1.3336271612027
4	81665	156.5	1.3336271612027
4	81723	156.6	1.3336271612027
4	81785	156.7	1.3336271612027
4	81843	156.8	1.3336271612027
4	81901	156.9	1.3336271612027
4	81959	157	1.3336271612027
4	82021	157.1	1.3336271612027
4	82083	157.2	1.3336271612027
4	82145	157.3	1.3336271612027
4	82207	157.4	1.3336271612027
4	82269	157.5	1.3336271612027
4	82331	157.6	1.3336271612027
4	82393	157.7	1.3336271612027
4	82455	157.8	1.3336271612027
4	82517	157.9	1.3336271612027
4	82565	158	1.3336271612027
4	82613	158.1	1.3336271612027
4	82661	158.2	1.3336271612027
4	82709	158.3	1.3336271612027
4	82757	158.4	1.3336271612027
4	82805	158.5	1.3336271612027
4	82853	158.6	1.3336271612027
4	82901	158.7	1.3336271612027
4	82949	158.8	1.3336271612027
4	83011	158.9	1.3336271612027
4	83073	159	1.3336271612027
4	83135	159.1	1.3336271612027
4	83197	159.2	1.3336271612027
4	83259	159.3	1.3336271612027
4	83321	159.4	1.3336271612027
4	83383	159.5	1.3336271612027
4	83445	159.6	1.3336271612027
4	83507	159.7	1.3336271612027
4	83569	159.8	1.3336271612027
4	83631	159.9	1.3336271612027
4	83693	160	1.3336271612027
4	83755	160.1	1.3336271612027
4	83817	160.2	1.3336271612027
4	83875	160.3	1.3336271612027
4	83937	160.4	1.3336271612027
4	83999	160.5	1.3336271612027
4	84061	160.6	1.3336271612027
4	84123	160.7	1.3336271612027
4	84171	160.8	1.3336271612027
4	84219	160.9	1.3336271612027
4	84267	161	1.3336271612027
4	84315	161.1	1.3336271612027
4	84363	161.2	1.3336271612027
4	84411	161.3	1.3336271612027
4	84459	161.4	1.3336271612027
4	84507	161.5	1.3336271612027
4	84555	161.6	1.3336271612027
4	84617	161.7	1.3336271612027
4	84679	161.8	1.3336271612027
4	84741	161.9	1.3336271612027
4	84799	162	1.3336271612027
4	84861	162.1	1.3336271612027
4	84923	162.2	1.3336271612027
4	84985	162.3	1.3336271612027
4	85047	162.4	1.3336271612027
4	85109	162.5	1.3336271612027
4	85171	162.6	1.3336271612027
4	85229	162.7	1.3336271612027
4	85291	162.8	1.3336271612027
4	85349	162.9	1.3336271612027
4	85411	163	1.3336271612027
4	85473	163.1	1.3336271612027
4	85535	163.2	1.3336271612027
4	85597	163.3	1.3336271612027
4	85659	163.4	1.3336271612027
4	85721	163.5	1.3336271612027
4	85769	163.6	1.3336271612027
4	85817	163.7	1.3336271612027
4	85865	163.8	1.3336271612027
4	85913	163.9	1.3336271612027
4	85961	164	1.3336271612027
4	86009	164.1	1.3336271612027
4	86057	164.2	1.3336271612027
4	86105	164.3	1.3336271612027
4	86167	164.4	1.3336271612027
4	86229	164.5	1.3336271612027
4	86287	164.6	1.3336271612027
4	86349	164.7	1.3336271612027
4	86411	164.8	1.3336271612027
4	86473	164.9	1.3336271612027
4	86535	165	1.3336271612027
4	86597	165.1	1.3336271612027
4	86659	165.2	1.3336271612027
4	86721	165.3	1.3336271612027
4	86779	165.4	1.3336271612027
4	86841	165.5	1.3336271612027
4	86903	165.6	1.3336271612027
4	86965	165.7	1.3336271612027
4	87027	165.8	1.3336271612027
4	87089	165.9	1.3336271612027
4	87147	166	1.3336271612027
4	87209	166.1	1.3336271612027
4	87271	166.2	1.3336271612027
4	87333	166.3	1.3336271612027
4	87381	166.4	1.3336271612027
4	87429	166.5	1.3336271612027
4	87477	166.6	1.3336271612027
4	87525	166.7	1.3336271612027
4	87573	166.8	1.3336271612027
4	87621	166.9	1.3336271612027
4	87669	167	1.3336271612027
4	87717	167.1	1.3336271612027
4	87779	167.2	1.3336271612027
4	87841	167.3	1.3336271612027
4	87899	167.4	1.3336271612027
4	87957	167.5	1.3336271612027
4	88015	167.6	1.3336271612027
4	88077	167.7	1.3336271612027
4	88139	167.8	1.3336271612027
4	88197	167.9	1.3336271612027
4	88259	168	1.3336271612027
4	88321	168.1	1.3336271612027
4	88383	168.2	1.3336271612027
4	88445	168.3	1.3336271612027
4	88507	168.4	1.3336271612027
4	88569	168.5	1.3336271612027
4	88631	168.6	1.3336271612027
4	88689	168.7	1.3336271612027
4	88751	168.8	1.3336271612027
4	88813	168.9	1.3336271612027
4	88875	169	1.3336271612027
4	88937	169.1	1.3336271612027
4	88985	169.2	1.3336271612027
4	89033	169.3	1.3336271612027
4	89081	169.4	1.3336271612027
4	89129	169.5	1.3336271612027
4	89177	169.6	1.3336271612027
4	89225	169.7	1.3336271612027
4	89273	169.8	1.3336271612027
4	89321	169.9	1.3336271612027
4	89383	170	1.3336271612027
4	89445	170.1	1.3336271612027
4	89507	170.2	1.3336271612027
4	89569	170.3	1.3336271612027
4	89631	170.4	1.3336271612027
4	89693	170.5	1.3336271612027
4	89755	170.6	1.3336271612027
4	89817	170.7	1.3336271612027
4	89879	170.8	1.3336271612027
4	89941	170.9	1.3336271612027
4	90003	171	1.3336271612027
4	90065	171.1	1.3336271612027
4	90123	171.2	1.3336271612027
4	90185	171.3	1.3336271612027
4	90247	171.4	1.3336271612027
4	90309	171.5	1.3336271612027
4	90371	171.6	1.3336271612027
4	90433	171.7	1.3336271612027
4	90495	171.8	1.3336271612027
4	90557	171.9	1.3336271612027
4	90605	172	1.3336271612027
4	90653	172.1	1.3336271612027
4	90701	172.2	1.3336271612027
4	90749	172.3	1.3336271612027
4	90797	172.4	1.3336271612027
4	90845	172.5	1.3336271612027
4	90893	172.6	1.3336271612027
4	90941	172.7	1.3336271612027
4	91003	172.8	1.3336271612027
4	91061	172.9	1.3336271612027
4	91123	173	1.3336271612027
4	91181	173.1	1.3336271612027
4	91239	173.2	1.3336271612027
4	91301	173.3	1.3336271612027
4	91363	173.4	1.3336271612027
4	91425	173.5	1.3336271612027
4	91487	173.6	1.3336271612027
4	91545	173.7	1.3336271612027
4	91603	173.8	2.4392369198488
4	91665	173.9	14.806596945126
4	91713	174	17.275055073728
4	91761	174.1	19.747152134583
4	91809	174.2	8.4253312168537
4	91857	174.3	1.5383337255213
4	91905	174.4	1.5383337255213
4	91953	174.5	1.5383337255213
4	92001	174.6	1.5383337255213
4	92049	174.7	1.5383337255213
4	92097	174.8	1.5383337255213
4	92145	174.9	1.5383337255213
4	92193	175	0.973
4	92241	175.1	0.973
4	92289	175.2	0.973
4	92337	175.3	0.973
4	92385	175.4	0.973
4	92433	175.5	1.3336271612027
4	92491	175.6	1.3336271612027
4	92553	175.7	1.3336271612027
4	92611	175.8	1.3336271612027
4	92673	175.9	1.3336271612027
4	92735	176	1.3336271612027
4	92797	176.1	1.3336271612027
4	92859	176.2	1.3336271612027
4	92921	176.3	1.3336271612027
4	92983	176.4	1.3336271612027
4	93045	176.5	1.3336271612027
4	93107	176.6	1.3336271612027
4	93165	176.7	1.3336271612027
4	93213	176.8	1.3336271612027
4	93261	176.9	1.3336271612027
4	93309	177	1.3336271612027
4	93357	177.1	1.3336271612027
4	93405	177.2	1.3336271612027
4	93453	177.3	1.3336271612027
4	93501	177.4	1.3336271612027
4	93549	177.5	1.3336271612027
4	93597	177.6	1.3336271612027
4	93659	177.7	1.3336271612027
4	93721	177.8	1.3336271612027
4	93783	177.9	1.3336271612027
4	93845	178	1.3336271612027
4	93907	178.1	1.3336271612027
4	93965	178.2	1.3336271612027
4	94023	178.3	1.3336271612027
4	94085	178.4	1.3336271612027
4	94147	178.5	1.3336271612027
4	94209	178.6	1.3336271612027
4	94271	178.7	1.3336271612027
4	94333	178.8	1.3336271612027
4	94391	178.9	1.3336271612027
4	94453	179	1.3336271612027
4	94515	179.1	1.3336271612027
4	94577	179.2	1.3336271612027
4	94635	179.3	1.3336271612027
4	94693	179.4	1.3336271612027
4	94755	179.5	1.3336271612027
4	94803	179.6	1.3336271612027
4	94851	179.7	1.3336271612027
4	94899	179.8	1.3336271612027
4	94947	179.9	1.3336271612027
4	94995	180	1.3336271612027
4	95043	180.1	1.3336271612027
4	95091	180.2	1.3336271612027
4	95139	180.3	1.3336271612027
4	95187	180.4	1.3336271612027
4	95249	180.5	1.3336271612027
4	95311	180.6	1.3336271612027
4	95373	180.7	1.3336271612027
4	95435	180.8	1.3336271612027
4	95497	180.9	1.3336271612027
4	95559	181	1.3336271612027
4	95621	181.1	1.3336271612027
4	95679	181.2	1.3336271612027
4	95737	181.3	1.3336271612027
4	95799	181.4	1.3336271612027
4	95861	181.5	1.3336271612027
4	95919	181.6	1.3336271612027
4	95981	181.7	1.3336271612027
4	96039	181.8	1.3336271612027
4	96101	181.9	1.3336271612027
4	96163	182	1.3336271612027
4	96225	182.1	1.3336271612027
4	96287	182.2	1.3336271612027
4	96349	182.3	1.3336271612027
4	96397	182.4	1.3336271612027
4	96445	182.5	1.3336271612027
4	96493	182.6	1.3336271612027
4	96541	182.7	1.3336271612027
4	96589	182.8	1.3336271612027
4	96637	182.9	1.3336271612027
4	96685	183	1.3336271612027
4	96733	183.1	1.3336271612027
4	96781	183.2	1.3336271612027
4	96843	183.3	1.3336271612027
4	96905	183.4	1.3336271612027
4	96963	183.5	1.3336271612027
4	97025	183.6	1.3336271612027
4	97087	183.7	1.3336271612027
4	97145	183.8	1.3336271612027
4	97207	183.9	1.3336271612027
4	97265	184	1.3336271612027
4	97327	184.1	1.3336271612027
4	97389	184.2	1.3336271612027
4	97451	184.3	1.3336271612027
4	97509	184.4	1.3336271612027
4	97567	184.5	1.3336271612027
4	97629	184.6	1.3336271612027
4	97691	184.7	1.3336271612027
4	97753	184.8	1.3336271612027
4	97811	184.9	1.3336271612027
4	97869	185	1.3336271612027
4	97931	185.1	1.3336271612027
4	97979	185.2	1.3336271612027
4	98027	185.3	1.3336271612027
4	98075	185.4	1.3336271612027
4	98123	185.5	1.3336271612027
4	98171	185.6	1.3336271612027
4	98219	185.7	1.3336271612027
4	98267	185.8	1.3336271612027
4	98315	185.9	1.3336271612027
4	98363	186	1.3336271612027
4	98425	186.1	1.3336271612027
4	98483	186.2	1.3336271612027
4	98541	186.3	1.3336271612027
4	98603	186.4	1.3336271612027
4	98665	186.5	1.3336271612027
4	98723	186.6	1.3336271612027
4	98785	186.7	1.3336271612027
4	98833	186.8	1.3336271612027
4	98881	186.9	1.3336271612027
4	98929	187	1.3336271612027
4	98977	187.1	1.3336271612027
4	99025	187.2	1.3336271612027
4	99073	187.3	1.3336271612027
4	99121	187.4	1.3336271612027
4	99169	187.5	1.3336271612027
4	99217	187.6	1.3336271612027
4	99265	187.7	1.3336271612027
4	99313	187.8	1.3336271612027
4	99361	187.9	1.3336271612027
4	99409	188	1.3336271612027
4	99457	188.1	1.3336271612027
4	99505	188.2	1.3336271612027
4	99553	188.3	1.3336271612027
4	99601	188.4	1.3336271612027
4	99649	188.5	1.3336271612027
4	99697	188.6	1.3336271612027
4	99745	188.7	1.3336271612027
4	99793	188.8	1.3336271612027
4	99841	188.9	1.3336271612027
4	99889	189	1.3336271612027
4	99937	189.1	1.3336271612027
4	99985	189.2	1.3336271612027
4	100033	189.3	1.3336271612027
4	100081	189.4	1.3336271612027
4	100129	189.5	1.3336271612027
4	100177	189.6	1.3336271612027
4	100225	189.7	1.3336271612027
4	100273	189.8	1.3336271612027
4	100321	189.9	1.3336271612027
4	100379	190	1.3336271612027
4	100441	190.1	1.3336271612027
4	100503	190.2	1.3336271612027
4	100565	190.3	1.3336271612027
4	100627	190.4	1.3336271612027
4	100689	190.5	1.3336271612027
4	100747	190.6	1.3336271612027
4	100809	190.7	1.3336271612027
4	100857	190.8	1.3336271612027
4	100905	190.9	1.3336271612027
4	100953	191	1.3336271612027
4	101001	191.1	1.3336271612027
4	101049	191.2	1.3336271612027
4	101097	191.3	1.3336271612027
4	101145	191.4	1.3336271612027
4	101193	191.5	1.3336271612027
4	101241	191.6	1.3336271612027
4	101303	191.7	1.3336271612027
4	101365	191.8	1.3336271612027
4	101427	191.9	1.3336271612027
4	101489	192	1.3336271612027
4	101551	192.1	1.3336271612027
4	101613	192.2	1.3336271612027
4	101661	192.3	1.3336271612027
4	101709	192.4	1.3336271612027
4	101757	192.5	1.3336271612027
4	101805	192.6	1.3336271612027
4	101853	192.7	1.3336271612027
4	101901	192.8	1.3336271612027
4	101949	192.9	1.3336271612027
4	101997	193	1.3336271612027
4	102045	193.1	1.3336271612027
4	102093	193.2	1.3336271612027
4	102141	193.3	1.3336271612027
4	102189	193.4	1.3336271612027
4	102237	193.5	1.3336271612027
4	102285	193.6	1.3336271612027
4	102333	193.7	1.3336271612027
4	102381	193.8	1.3336271612027
4	102429	193.9	1.3336271612027
4	102477	194	1.3336271612027
4	102525	194.1	1.3336271612027
4	102573	194.2	1.3336271612027
4	102621	194.3	1.3336271612027
4	102669	194.4	1.3336271612027
4	102717	194.5	1.3336271612027
4	102765	194.6	1.3336271612027
4	102813	194.7	1.3336271612027
4	102861	194.8	1.3336271612027
4	102909	194.9	1.3336271612027
4	102957	195	1.3336271612027
4	103005	195.1	1.3336271612027
4	103053	195.2	1.3336271612027
4	103101	195.3	1.3336271612027
4	103149	195.4	1.3336271612027
4	103197	195.5	1.3336271612027
4	103255	195.6	1.3336271612027
4	103317	195.7	1.3336271612027
4	103379	195.8	1.3336271612027
4	103441	195.9	1.3336271612027
4	103503	196	1.3336271612027
4	103565	196.1	1.3336271612027
4	103623	196.2	1.3336271612027
4	103685	196.3	1.3336271612027
4	103743	196.4	1.3336271612027
4	103805	196.5	1.3336271612027
4	103867	196.6	1.3336271612027
4	103929	196.7	1.3336271612027
4	103977	196.8	1.3336271612027
4	104025	196.9	1.3336271612027
4	104073	197	1.3336271612027
4	104121	197.1	1.3336271612027
4	104169	197.2	1.3336271612027
4	104217	197.3	1.3336271612027
4	104265	197.4	1.3336271612027
4	104327	197.5	1.3336271612027
4	104389	197.6	1.3336271612027
4	104451	197.7	1.3336271612027
4	104513	197.8	1.3336271612027
4	104561	197.9	1.3336271612027
4	104609	198	1.3336271612027
4	104657	198.1	1.3336271612027
4	104705	198.2	1.3336271612027
4	104753	198.3	1.3336271612027
4	104801	198.4	1.3336271612027
4	104849	198.5	1.3336271612027
4	104897	198.6	1.3336271612027
4	104945	198.7	1.3336271612027
4	104993	198.8	1.3336271612027
4	105041	198.9	1.3336271612027
4	105089	199	1.3336271612027
4	105137	199.1	1.3336271612027
4	105185	199.2	1.3336271612027
4	105233	199.3	1.3336271612027
4	105281	199.4	1.3336271612027
4	105329	199.5	1.3336271612027
4	105377	199.6	1.3336271612027
4	105425	199.7	1.3336271612027
4	105473	199.8	1.3336271612027
4	105521	199.9	1.3336271612027
4	105583	200	1.3336271612027
4	105641	200.1	1.3336271612027
4	105703	200.2	1.3336271612027
4	105765	200.3	1.3336271612027
4	105823	200.4	1.3336271612027
4	105885	200.5	1.3336271612027
4	105947	200.6	1.3336271612027
4	105995	200.7	1.3336271612027
4	106043	200.8	1.3336271612027
4	106091	200.9	1.3336271612027
4	106139	201	1.3336271612027
4	106187	201.1	1.3336271612027
4	106235	201.2	1.3336271612027
4	106283	201.3	1.3336271612027
4	106331	201.4	1.3336271612027
4	106379	201.5	1.3336271612027
4	106437	201.6	1.3336271612027
4	106499	201.7	1.3336271612027
4	106561	201.8	1.3336271612027
4	106619	201.9	1.3336271612027
4	106677	202	1.3336271612027
4	106739	202.1	1.3336271612027
4	106801	202.2	1.3336271612027
4	106849	202.3	1.3336271612027
4	106897	202.4	1.3336271612027
4	106945	202.5	1.3336271612027
4	106993	202.6	1.3336271612027
4	107041	202.7	1.3336271612027
4	107089	202.8	1.3336271612027
4	107137	202.9	1.3336271612027
4	107185	203	1.3336271612027
4	107233	203.1	1.3336271612027
4	107281	203.2	1.3336271612027
4	107329	203.3	1.3336271612027
4	107377	203.4	1.3336271612027
4	107425	203.5	1.3336271612027
4	107473	203.6	1.3336271612027
4	107521	203.7	1.3336271612027
4	107569	203.8	1.3336271612027
4	107617	203.9	1.3336271612027
4	107665	204	1.3336271612027
4	107713	204.1	1.3336271612027
4	107761	204.2	1.3336271612027
4	107809	204.3	1.3336271612027
4	107857	204.4	1.3336271612027
4	107905	204.5	1.3336271612027
4	107953	204.6	1.3336271612027
4	108001	204.7	1.3336271612027
4	108049	204.8	1.3336271612027
4	108097	204.9	1.3336271612027
4	108145	205	1.3336271612027
4	108193	205.1	1.3336271612027
4	108241	205.2	1.3336271612027
4	108289	205.3	1.3336271612027
4	108337	205.4	1.3336271612027
4	108399	205.5	1.3336271612027
4	108461	205.6	1.3336271612027
4	108523	205.7	1.3336271612027
4	108585	205.8	1.3336271612027
4	108647	205.9	1.3336271612027
4	108709	206	1.3336271612027
4	108771	206.1	1.3336271612027
4	108833	206.2	1.3336271612027
4	108881	206.3	1.3336271612027
4	108929	206.4	1.3336271612027
4	108977	206.5	1.3336271612027
4	109025	206.6	1.3336271612027
4	109073	206.7	1.3336271612027
4	109121	206.8	1.3336271612027
4	109169	206.9	1.3336271612027
4	109217	207	1.3336271612027
4	109265	207.1	1.3336271612027
4	109327	207.2	1.3336271612027
4	109389	207.3	1.3336271612027
4	109447	207.4	1.3336271612027
4	109509	207.5	1.3336271612027
4	109571	207.6	1.3336271612027
4	109633	207.7	1.3336271612027
4	109695	207.8	1.3336271612027
4	109743	207.9	1.3336271612027
4	109791	208	1.3336271612027
4	109839	208.1	1.3336271612027
4	109887	208.2	1.3336271612027
4	109935	208.3	1.3336271612027
4	109983	208.4	1.3336271612027
4	110031	208.5	1.3336271612027
4	110079	208.6	1.3336271612027
4	110127	208.7	1.3336271612027
4	110175	208.8	1.3336271612027
4	110223	208.9	1.3336271612027
4	110271	209	1.3336271612027
4	110319	209.1	1.3336271612027
4	110367	209.2	1.3336271612027
4	110415	209.3	1.3336271612027
4	110463	209.4	1.3336271612027
4	110511	209.5	1.3336271612027
4	110559	209.6	1.3336271612027
4	110607	209.7	1.3336271612027
4	110655	209.8	1.3336271612027
4	110703	209.9	1.3336271612027
4	110751	210	1.3336271612027
4	110799	210.1	1.3336271612027
4	110847	210.2	1.3336271612027
4	110895	210.3	1.3336271612027
4	110943	210.4	1.3336271612027
4	110991	210.5	1.3336271612027
4	111039	210.6	1.3336271612027
4	111087	210.7	1.3336271612027
4	111135	210.8	1.3336271612027
4	111183	210.9	1.3336271612027
4	111231	211	1.3336271612027
4	111293	211.1	1.3336271612027
4	111355	211.2	1.3336271612027
4	111417	211.3	1.3336271612027
4	111479	211.4	1.3336271612027
4	111541	211.5	1.3336271612027
4	111603	211.6	1.3336271612027
4	111665	211.7	1.3336271612027
4	111723	211.8	1.3336271612027
4	111771	211.9	1.3336271612027
4	111819	212	1.3336271612027
4	111867	212.1	1.3336271612027
4	111915	212.2	1.3336271612027
4	111963	212.3	1.3336271612027
4	112011	212.4	1.3336271612027
4	112059	212.5	1.3336271612027
4	112107	212.6	1.3336271612027
4	112155	212.7	1.3336271612027
4	112217	212.8	1.3336271612027
4	112279	212.9	1.3336271612027
4	112341	213	1.3336271612027
4	112403	213.1	1.3336271612027
4	112461	213.2	1.3336271612027
4	112523	213.3	1.3336271612027
4	112585	213.4	1.3336271612027
4	112633	213.5	1.3336271612027
4	112681	213.6	1.3336271612027
4	112729	213.7	1.3336271612027
4	112777	213.8	1.3336271612027
4	112825	213.9	1.3336271612027
4	112873	214	1.3336271612027
4	112921	214.1	1.3336271612027
4	112969	214.2	1.3336271612027
4	113017	214.3	1.3336271612027
4	113065	214.4	1.3336271612027
4	113113	214.5	1.3336271612027
4	113161	214.6	1.3336271612027
4	113209	214.7	1.3336271612027
4	113257	214.8	1.3336271612027
4	113305	214.9	1.3336271612027
4	113353	215	1.3336271612027
4	113401	215.1	1.3336271612027
4	113449	215.2	1.3336271612027
4	113497	215.3	1.3336271612027
4	113545	215.4	1.3336271612027
4	113593	215.5	1.3336271612027
4	113641	215.6	1.3336271612027
4	113689	215.7	1.3336271612027
4	113737	215.8	1.3336271612027
4	113785	215.9	1.3336271612027
4	113833	216	1.3336271612027
4	113881	216.1	1.3336271612027
4	113929	216.2	1.3336271612027
4	113977	216.3	1.3336271612027
4	114025	216.4	1.3336271612027
4	114073	216.5	1.3336271612027
4	114121	216.6	1.3336271612027
4	114183	216.7	1.3336271612027
4	114245	216.8	1.3336271612027
4	114303	216.9	1.3336271612027
4	114365	217	1.3336271612027
4	114427	217.1	1.3336271612027
4	114485	217.2	1.3336271612027
4	114543	217.3	1.3336271612027
4	114605	217.4	1.3336271612027
4	114653	217.5	1.3336271612027
4	114701	217.6	1.3336271612027
4	114749	217.7	1.3336271612027
4	114797	217.8	1.3336271612027
4	114845	217.9	1.3336271612027
4	114893	218	1.3336271612027
4	114941	218.1	1.3336271612027
4	114989	218.2	1.3336271612027
4	115037	218.3	1.3336271612027
4	115099	218.4	1.3336271612027
4	115161	218.5	1.3336271612027
4	115223	218.6	1.3336271612027
4	115285	218.7	1.3336271612027
4	115347	218.8	1.3336271612027
4	115405	218.9	1.3336271612027
4	115467	219	1.3336271612027
4	115529	219.1	1.3336271612027
4	115587	219.2	1.3336271612027
4	115649	219.3	1.3336271612027
4	115711	219.4	1.3336271612027
4	115769	219.5	1.3336271612027
4	115831	219.6	1.3336271612027
4	115893	219.7	1.3336271612027
4	115951	219.8	1.3336271612027
4	116013	219.9	1.3336271612027
4	116075	220	1.3336271612027
4	116137	220.1	1.3336271612027
4	116199	220.2	1.3336271612027
4	116247	220.3	1.3336271612027
4	116295	220.4	1.3336271612027
4	116343	220.5	1.3336271612027
4	116391	220.6	1.3336271612027
4	116439	220.7	1.3336271612027
4	116487	220.8	1.3336271612027
4	116535	220.9	1.3336271612027
4	116583	221	1.3336271612027
4	116631	221.1	1.3336271612027
4	116689	221.2	1.3336271612027
4	116751	221.3	1.3336271612027
4	116813	221.4	1.3336271612027
4	116875	221.5	1.3336271612027
4	116933	221.6	1.3336271612027
4	116995	221.7	1.3336271612027
4	117057	221.8	1.3336271612027
4	117105	221.9	1.3336271612027
4	117153	222	1.3336271612027
4	117201	222.1	1.3336271612027
4	117249	222.2	1.3336271612027
4	117297	222.3	1.3336271612027
4	117345	222.4	1.3336271612027
4	117393	222.5	1.3336271612027
4	117441	222.6	1.3336271612027
4	117489	222.7	1.3336271612027
4	117537	222.8	1.3336271612027
4	117585	222.9	1.3336271612027
4	117633	223	1.3336271612027
4	117681	223.1	1.3336271612027
4	117729	223.2	1.3336271612027
4	117777	223.3	1.3336271612027
4	117825	223.4	1.3336271612027
4	117873	223.5	1.3336271612027
4	117921	223.6	1.3336271612027
4	117969	223.7	1.3336271612027
4	118017	223.8	1.3336271612027
4	118065	223.9	1.3336271612027
4	118113	224	1.3336271612027
4	118161	224.1	1.3336271612027
4	118209	224.2	1.3336271612027
4	118257	224.3	1.3336271612027
4	118305	224.4	1.3336271612027
4	118353	224.5	1.3336271612027
4	118401	224.6	1.3336271612027
4	118449	224.7	1.3336271612027
4	118497	224.8	1.3336271612027
4	118545	224.9	1.3336271612027
4	118593	225	1.3336271612027
4	118651	225.1	1.3336271612027
4	118709	225.2	1.3336271612027
4	118767	225.3	1.3336271612027
4	118825	225.4	1.3336271612027
4	118887	225.5	1.3336271612027
4	118945	225.6	1.3336271612027
4	119007	225.7	1.3336271612027
4	119055	225.8	1.3336271612027
4	119103	225.9	1.3336271612027
4	119151	226	1.3336271612027
4	119199	226.1	1.3336271612027
4	119247	226.2	1.3336271612027
4	119295	226.3	1.3336271612027
4	119343	226.4	1.3336271612027
4	119391	226.5	1.3336271612027
4	119439	226.6	1.3336271612027
4	119501	226.7	1.3336271612027
4	119559	226.8	1.3336271612027
4	119621	226.9	1.3336271612027
4	119683	227	1.3336271612027
4	119745	227.1	1.3336271612027
4	119803	227.2	1.3336271612027
4	119865	227.3	1.3336271612027
4	119913	227.4	1.3336271612027
4	119961	227.5	1.3336271612027
4	120009	227.6	1.3336271612027
4	120057	227.7	1.3336271612027
4	120105	227.8	1.3336271612027
4	120153	227.9	1.3336271612027
4	120201	228	1.3336271612027
4	120249	228.1	1.3336271612027
4	120297	228.2	1.3336271612027
4	120345	228.3	1.3336271612027
4	120393	228.4	1.3336271612027
4	120441	228.5	1.3336271612027
4	120489	228.6	1.3336271612027
4	120537	228.7	1.3336271612027
4	120585	228.8	1.3336271612027
4	120633	228.9	1.3336271612027
4	120681	229	1.3336271612027
4	120729	229.1	1.3336271612027
4	120777	229.2	1.3336271612027
4	120825	229.3	1.3336271612027
4	120873	229.4	1.3336271612027
4	120921	229.5	1.3336271612027
4	120969	229.6	1.3336271612027
4	121017	229.7	1.3336271612027
4	121065	229.8	1.3336271612027
4	121113	229.9	1.3336271612027
4	121161	230	1.3336271612027
4	121209	230.1	1.3336271612027
4	121257	230.2	1.3336271612027
4	121305	230.3	1.3336271612027
4	121353	230.4	1.3336271612027
4	121401	230.5	1.3336271612027
4	121463	230.6	1.3336271612027
4	121525	230.7	1.3336271612027
4	121587	230.8	1.3336271612027
4	121649	230.9	1.3336271612027
4	121697	231	1.3336271612027
4	121745	231.1	1.3336271612027
4	121793	231.2	1.3336271612027
4	121841	231.3	1.3336271612027
4	121889	231.4	1.3336271612027
4	121937	231.5	1.3336271612027
4	121985	231.6	1.3336271612027
4	122033	231.7	1.3336271612027
4	122095	231.8	1.3336271612027
4	122153	231.9	1.3336271612027
4	122215	232	1.3336271612027
4	122273	232.1	1.3336271612027
4	122335	232.2	1.3336271612027
4	122393	232.3	1.3336271612027
4	122455	232.4	1.3336271612027
4	122517	232.5	1.3336271612027
4	122575	232.6	1.3336271612027
4	122637	232.7	1.3336271612027
4	122695	232.8	1.3336271612027
4	122757	232.9	1.3336271612027
4	122819	233	1.3336271612027
4	122881	233.1	1.3336271612027
4	122943	233.2	1.3336271612027
4	123001	233.3	1.3336271612027
4	123059	233.4	1.3336271612027
4	123117	233.5	1.3336271612027
4	123165	233.6	1.3336271612027
4	123213	233.7	1.3336271612027
4	123261	233.8	1.3336271612027
4	123309	233.9	1.3336271612027
4	123357	234	1.3336271612027
4	123405	234.1	1.3336271612027
4	123453	234.2	1.3336271612027
4	123501	234.3	1.3336271612027
4	123549	234.4	1.3336271612027
4	123597	234.5	1.3336271612027
4	123659	234.6	1.3336271612027
4	123721	234.7	1.3336271612027
4	123783	234.8	1.3336271612027
4	123845	234.9	1.3336271612027
4	123903	235	1.3336271612027
4	123965	235.1	1.3336271612027
4	124027	235.2	1.3336271612027
4	124089	235.3	1.3336271612027
4	124151	235.4	1.3336271612027
4	124213	235.5	1.3336271612027
4	124275	235.6	1.3336271612027
4	124333	235.7	1.3336271612027
4	124395	235.8	1.3336271612027
4	124457	235.9	1.3336271612027
4	124519	236	1.3336271612027
4	124577	236.1	1.3336271612027
4	124635	236.2	1.3336271612027
4	124697	236.3	1.3336271612027
4	124755	236.4	1.3336271612027
4	124817	236.5	1.3336271612027
4	124875	236.6	1.3336271612027
4	124923	236.7	1.3336271612027
4	124971	236.8	1.3336271612027
4	125019	236.9	1.3336271612027
4	125067	237	1.3336271612027
4	125115	237.1	1.3336271612027
4	125163	237.2	1.3336271612027
4	125211	237.3	1.3336271612027
4	125273	237.4	1.3336271612027
4	125335	237.5	1.3336271612027
4	125397	237.6	1.3336271612027
4	125455	237.7	1.3336271612027
4	125517	237.8	1.3336271612027
4	125579	237.9	1.3336271612027
4	125637	238	1.3336271612027
4	125699	238.1	1.3336271612027
4	125761	238.2	1.3336271612027
4	125819	238.3	1.3336271612027
4	125881	238.4	1.3336271612027
4	125939	238.5	1.3336271612027
4	125997	238.6	1.3336271612027
4	126059	238.7	1.3336271612027
4	126121	238.8	1.3336271612027
4	126179	238.9	1.3336271612027
4	126241	239	1.3336271612027
4	126303	239.1	1.3336271612027
4	126365	239.2	1.3336271612027
4	126427	239.3	1.3336271612027
4	126475	239.4	1.3336271612027
4	126523	239.5	1.3336271612027
4	126571	239.6	1.3336271612027
4	126619	239.7	1.3336271612027
4	126667	239.8	1.3336271612027
4	126715	239.9	1.3336271612027
4	126763	240	1.3336271612027
4	126811	240.1	1.3336271612027
4	126873	240.2	1.3336271612027
4	126935	240.3	1.3336271612027
4	126993	240.4	1.3336271612027
4	127051	240.5	1.3336271612027
4	127113	240.6	1.3336271612027
4	127175	240.7	1.3336271612027
4	127237	240.8	1.3336271612027
4	127295	240.9	1.3336271612027
4	127357	241	1.3336271612027
4	127419	241.1	1.3336271612027
4	127477	241.2	1.3336271612027
4	127535	241.3	1.3336271612027
4	127583	241.4	1.3336271612027
4	127631	241.5	1.3336271612027
4	127679	241.6	1.3336271612027
4	127727	241.7	1.3336271612027
4	127775	241.8	1.3336271612027
4	127823	241.9	1.3336271612027
4	127871	242	1.3336271612027
4	127919	242.1	1.3336271612027
4	127967	242.2	1.3336271612027
4	128015	242.3	1.3336271612027
4	128063	242.4	1.3336271612027
4	128111	242.5	1.3336271612027
4	128159	242.6	1.3336271612027
4	128207	242.7	1.3336271612027
4	128255	242.8	1.3336271612027
4	128303	242.9	1.3336271612027
4	128351	243	1.3336271612027
4	128399	243.1	1.3336271612027
4	128447	243.2	1.3336271612027
4	128495	243.3	1.3336271612027
4	128543	243.4	1.3336271612027
4	128591	243.5	1.3336271612027
4	128639	243.6	1.3336271612027
4	128687	243.7	1.3336271612027
4	128735	243.8	1.3336271612027
4	128783	243.9	1.3336271612027
4	128831	244	1.3336271612027
4	128879	244.1	1.3336271612027
4	128927	244.2	1.3336271612027
4	128975	244.3	1.3336271612027
4	129023	244.4	1.3336271612027
4	129071	244.5	1.3336271612027
4	129133	244.6	1.3336271612027
4	129195	244.7	1.3336271612027
4	129257	244.8	1.3336271612027
4	129319	244.9	1.3336271612027
4	129367	245	1.3336271612027
4	129415	245.1	1.3336271612027
4	129463	245.2	1.3336271612027
4	129511	245.3	1.3336271612027
4	129559	245.4	1.3336271612027
4	129607	245.5	1.3336271612027
4	129655	245.6	1.3336271612027
4	129703	245.7	1.3336271612027
4	129765	245.8	1.3336271612027
4	129827	245.9	1.3336271612027
4	129889	246	1.3336271612027
4	129951	246.1	1.3336271612027
4	130013	246.2	1.3336271612027
4	130075	246.3	1.3336271612027
4	130133	246.4	1.3336271612027
4	130195	246.5	1.3336271612027
4	130257	246.6	1.3336271612027
4	130319	246.7	1.3336271612027
4	130377	246.8	1.3336271612027
4	130439	246.9	1.3336271612027
4	130487	247	1.3336271612027
4	130535	247.1	1.3336271612027
4	130583	247.2	1.3336271612027
4	130631	247.3	1.3336271612027
4	130679	247.4	1.3336271612027
4	130727	247.5	1.3336271612027
4	130775	247.6	1.3336271612027
4	130823	247.7	1.3336271612027
4	130871	247.8	1.3336271612027
4	130919	247.9	1.3336271612027
4	130967	248	1.3336271612027
4	131015	248.1	1.3336271612027
4	131063	248.2	1.3336271612027
4	131111	248.3	1.3336271612027
4	131159	248.4	1.3336271612027
4	131207	248.5	1.3336271612027
4	131255	248.6	1.3336271612027
4	131303	248.7	1.3336271612027
4	131351	248.8	1.3336271612027
4	131399	248.9	1.3336271612027
4	131447	249	1.3336271612027
4	131495	249.1	1.3336271612027
4	131543	249.2	1.3336271612027
4	131591	249.3	1.3336271612027
4	131639	249.4	1.3336271612027
4	131687	249.5	1.3336271612027
4	131735	249.6	1.3336271612027
4	131783	249.7	1.3336271612027
4	131831	249.8	1.3336271612027
4	131879	249.9	1.3336271612027
4	131927	250	1.3336271612027
4	131975	250.1	1.3336271612027
4	132037	250.2	1.3336271612027
4	132095	250.3	1.3336271612027
4	132157	250.4	1.3336271612027
4	132215	250.5	1.3336271612027
4	132277	250.6	1.3336271612027
4	132325	250.7	1.3336271612027
4	132373	250.8	1.3336271612027
4	132421	250.9	1.3336271612027
4	132469	251	1.3336271612027
4	132517	251.1	1.3336271612027
4	132565	251.2	1.3336271612027
4	132613	251.3	1.3336271612027
4	132675	251.4	1.3336271612027
4	132733	251.5	1.3336271612027
4	132795	251.6	1.3336271612027
4	132853	251.7	1.3336271612027
4	132915	251.8	1.3336271612027
4	132977	251.9	1.3336271612027
4	133039	252	1.3336271612027
4	133101	252.1	1.3336271612027
4	133163	252.2	1.3336271612027
4	133225	252.3	1.3336271612027
4	133287	252.4	1.3336271612027
4	133345	252.5	1.3336271612027
4	133393	252.6	1.3336271612027
4	133441	252.7	1.3336271612027
4	133489	252.8	1.3336271612027
4	133537	252.9	1.3336271612027
4	133585	253	1.3336271612027
4	133633	253.1	1.3336271612027
4	133681	253.2	1.3336271612027
4	133729	253.3	1.3336271612027
4	133777	253.4	1.3336271612027
4	133825	253.5	1.3336271612027
4	133873	253.6	1.3336271612027
4	133921	253.7	1.3336271612027
4	133969	253.8	1.3336271612027
4	134017	253.9	1.3336271612027
4	134065	254	1.3336271612027
4	134113	254.1	1.3336271612027
4	134161	254.2	1.3336271612027
4	134209	254.3	1.3336271612027
4	134257	254.4	1.3336271612027
4	134305	254.5	1.3336271612027
4	134353	254.6	1.3336271612027
4	134401	254.7	1.3336271612027
4	134449	254.8	1.3336271612027
4	134497	254.9	1.3336271612027
4	134545	255	1.3336271612027
4	134593	255.1	1.3336271612027
4	134641	255.2	1.3336271612027
4	134689	255.3	1.3336271612027
4	134737	255.4	1.3336271612027
4	134785	255.5	1.3336271612027
4	134833	255.6	1.3336271612027
4	134881	255.7	1.3336271612027
4	134939	255.8	1.3336271612027
4	135001	255.9	1.3336271612027
4	135063	256	1.3336271612027
4	135125	256.1	1.3336271612027
4	135187	256.2	1.3336271612027
4	135249	256.3	1.3336271612027
4	135311	256.4	1.3336271612027
4	135359	256.5	1.3336271612027
4	135407	256.6	1.3336271612027
4	135455	256.7	1.3336271612027
4	135503	256.8	1.3336271612027
4	135551	256.9	1.3336271612027
4	135599	257	1.3336271612027
4	135647	257.1	1.3336271612027
4	135695	257.2	1.3336271612027
4	135743	257.3	1.3336271612027
4	135805	257.4	1.3336271612027
4	135863	257.5	1.3336271612027
4	135925	257.6	1.3336271612027
4	135987	257.7	1.3336271612027
4	136049	257.8	1.3336271612027
4	136111	257.9	1.3336271612027
4	136173	258	1.3336271612027
4	136235	258.1	1.3336271612027
4	136283	258.2	1.3336271612027
4	136331	258.3	1.3336271612027
4	136379	258.4	1.3336271612027
4	136427	258.5	1.3336271612027
4	136475	258.6	1.3336271612027
4	136523	258.7	1.3336271612027
4	136571	258.8	1.3336271612027
4	136619	258.9	1.3336271612027
4	136667	259	1.3336271612027
4	136715	259.1	1.3336271612027
4	136763	259.2	1.3336271612027
4	136811	259.3	1.3336271612027
4	136859	259.4	1.3336271612027
4	136907	259.5	1.3336271612027
4	136955	259.6	1.3336271612027
4	137003	259.7	1.3336271612027
4	137051	259.8	1.3336271612027
4	137099	259.9	1.3336271612027
4	137147	260	1.3336271612027
4	137195	260.1	1.3336271612027
4	137257	260.2	1.3336271612027
4	137315	260.3	1.3336271612027
4	137373	260.4	1.3336271612027
4	137431	260.5	1.3336271612027
4	137493	260.6	1.3336271612027
4	137555	260.7	1.3336271612027
4	137617	260.8	1.3336271612027
4	137665	260.9	1.3336271612027
4	137713	261	1.3336271612027
4	137761	261.1	1.3336271612027
4	137809	261.2	1.3336271612027
4	137857	261.3	1.3336271612027
4	137905	261.4	1.3336271612027
4	137953	261.5	1.3336271612027
4	138001	261.6	1.3336271612027
4	138049	261.7	1.3336271612027
4	138111	261.8	1.3336271612027
4	138169	261.9	1.3336271612027
4	138231	262	1.3336271612027
4	138293	262.1	1.3336271612027
4	138355	262.2	1.3336271612027
4	138413	262.3	1.3336271612027
4	138471	262.4	1.3336271612027
4	138533	262.5	1.3336271612027
4	138581	262.6	1.3336271612027
4	138629	262.7	1.3336271612027
4	138677	262.8	1.3336271612027
4	138725	262.9	1.3336271612027
4	138773	263	1.3336271612027
4	138821	263.1	1.3336271612027
4	138869	263.2	1.3336271612027
4	138917	263.3	1.3336271612027
4	138965	263.4	1.3336271612027
4	139013	263.5	1.3336271612027
4	139061	263.6	1.3336271612027
4	139109	263.7	1.3336271612027
4	139157	263.8	1.3336271612027
4	139205	263.9	1.3336271612027
4	139253	264	1.3336271612027
4	139301	264.1	1.3336271612027
4	139349	264.2	1.3336271612027
4	139397	264.3	1.3336271612027
4	139445	264.4	1.3336271612027
4	139493	264.5	1.3336271612027
4	139541	264.6	1.3336271612027
4	139589	264.7	1.3336271612027
4	139637	264.8	1.3336271612027
4	139685	264.9	1.3336271612027
4	139733	265	1.3336271612027
4	139781	265.1	1.3336271612027
4	139829	265.2	1.3336271612027
4	139877	265.3	1.3336271612027
4	139925	265.4	1.3336271612027
4	139973	265.5	1.3336271612027
4	140021	265.6	1.3336271612027
4	140083	265.7	1.3336271612027
4	140141	265.8	1.3336271612027
4	140203	265.9	1.3336271612027
4	140265	266	1.3336271612027
4	140313	266.1	1.3336271612027
4	140361	266.2	1.3336271612027
4	140409	266.3	1.3336271612027
4	140457	266.4	1.3336271612027
4	140505	266.5	1.3336271612027
4	140553	266.6	1.3336271612027
4	140601	266.7	1.3336271612027
4	140649	266.8	1.3336271612027
4	140711	266.9	1.3336271612027
4	140773	267	1.3336271612027
4	140835	267.1	1.3336271612027
4	140897	267.2	1.3336271612027
4	140959	267.3	1.3336271612027
4	141021	267.4	1.3336271612027
4	141083	267.5	1.3336271612027
4	141145	267.6	1.3336271612027
4	141207	267.7	1.3336271612027
4	141265	267.8	1.3336271612027
4	141327	267.9	1.3336271612027
[...]
0	133537	252.9	79.775580696963
0	133585	253	79.334195283974
0	133633	253.1	78.892809870985
0	133681	253.2	78.451424457996
0	133729	253.3	78.055339168794
0	133777	253.4	77.672516564627
0	133825	253.5	77.289693960461
0	133873	253.6	76.906871356294
0	133921	253.7	76.524048752128
0	133969	253.8	76.141226147962
0	134017	253.9	75.758403543795
0	134065	254	75.465348563777
0	134113	254.1	75.235655001277
0	134161	254.2	75.005961438778
0	134209	254.3	74.776267876278
0	134257	254.4	74.546574313778
0	134305	254.5	74.316880751278
0	134353	254.6	74.087187188778
0	134401	254.7	73.924572430007
0	134449	254.8	73.861435708693
0	134497	254.9	73.798298987379
0	134545	255	73.735162266065
0	134593	255.1	73.672025544751
0	134641	255.2	73.608888823436
0	134689	255.3	73.545752102122
0	134737	255.4	73.482615380808
0	134785	255.5	73.419478659494
0	134833	255.6	73.4
0	134881	255.7	73.4
0	134939	255.8	73.4
0	135001	255.9	73.4
0	135063	256	73.4
0	135125	256.1	73.4
0	135187	256.2	73.4
0	135249	256.3	73.4
0	135311	256.4	73.4
0	135359	256.5	73.4
0	135407	256.6	73.4
0	135455	256.7	73.4
0	135503	256.8	73.4
0	135551	256.9	73.4
0	135599	257	73.4
0	135647	257.1	73.4
0	135695	257.2	73.4
0	135743	257.3	73.4
0	135805	257.4	73.4
0	135863	257.5	73.4
0	135925	257.6	73.4
0	135987	257.7	73.4
0	136049	257.8	73.4
0	136111	257.9	73.4
0	136173	258	73.339841424801
0	136235	258.1	73.276683632198
0	136283	258.2	73.213525839595
0	136331	258.3	73.150368046992
0	136379	258.4	73.087210254389
0	136427	258.5	72.955601964017
0	136475	258.6	72.725831743444
0	136523	258.7	72.496061522871
0	136571	258.8	72.266291302298
0	136619	258.9	72.036521081725
0	136667	259	71.67791810192
0	136715	259.1	71.294967734299
0	136763	259.2	70.912017366677
0	136811	259.3	70.529066999056
0	136859	259.4	70.130069811625
0	136907	259.5	69.687965263404
0	136955	259.6	69.245860715184
0	137003	259.7	68.803756166964
0	137051	259.8	68.361651618743
0	137099	259.9	67.919547070523
0	137147	260	67.474218749541
0	137195	260.1	67.027695625721
0	137257	260.2	66.581172501902
0	137315	260.3	66.134649378082
0	137373	260.4	65.688126254263
0	137431	260.5	65.241603130443
0	137493	260.6	64.795080006623
0	137555	260.7	64.348556882804
0	137617	260.8	63.902033758984
0	137665	260.9	63.455510635164
0	137713	261	63.008987511345
0	137761	261.1	62.562464387525
0	137809	261.2	62.115941263706
0	137857	261.3	61.669418139886
0	137905	261.4	61.222895016066
0	137953	261.5	60.776371892247
0	138001	261.6	60.329848768427
0	138049	261.7	59.883325644607
0	138111	261.8	59.436802520788
0	138169	261.9	58.990279396968
0	138231	262	58.543756273149
0	138293	262.1	58.097233149329
0	138355	262.2	57.650710025509
0	138413	262.3	57.20418690169
0	138471	262.4	56.762040921927
0	138533	262.5	56.319936373707
0	138581	262.6	55.877831825486
0	138629	262.7	55.435727277266
0	138677	262.8	54.993622729046
0	138725	262.9	54.551518180826
0	138773	263	54.109413632605
0	138821	263.1	53.667309084385
0	138869	263.2	53.241902336346
0	138917	263.3	52.858951968725
0	138965	263.4	52.476001601103
0	139013	263.5	52.093051233482
0	139061	263.6	51.71010086586
0	139109	263.7	51.327150498239
0	139157	263.8	50.944200130617
0	139205	263.9	50.576749857798
0	139253	264	50.346979637225
0	139301	264.1	50.117209416652
0	139349	264.2	49.887439196079
0	139397	264.3	49.657668975506
0	139445	264.4	49.427898754933
0	139493	264.5	49.19812853436
0	139541	264.6	48.968358313787
0	139589	264.7	48.891888425187
0	139637	264.8	48.828730632584
0	139685	264.9	48.765572839981
0	139733	265	48.702415047379
0	139781	265.1	48.639257254776
0	139829	265.2	48.576099462173
0	139877	265.3	48.51294166957
0	139925	265.4	48.449783876967
0	139973	265.5	48.4
0	140021	265.6	48.4
0	140083	265.7	48.4
0	140141	265.8	48.4
0	140203	265.9	48.4
0	140265	266	48.4
0	140313	266.1	48.4
0	140361	266.2	48.4
0	140409	266.3	48.4
0	140457	266.4	48.4
0	140505	266.5	48.4
0	140553	266.6	48.4
0	140601	266.7	48.4
0	140649	266.8	48.4
0	140711	266.9	48.4
0	140773	267	48.4
0	140835	267.1	48.4
0	140897	267.2	48.4
0	140959	267.3	48.4
0	141021	267.4	48.4
0	141083	267.5	48.4
0	141145	267.6	48.4
0	141207	267.7	48.4
0	141265	267.8	48.4
0	141327	267.9	48.4
0	141385	268	48.4
0	141443	268.1	48.4
0	141505	268.2	48.4
0	141567	268.3	48.4
0	141629	268.4	48.4
0	141687	268.5	48.4
0	141749	268.6	48.4
0	141807	268.7	48.4
0	141869	268.8	48.4
0	141917	268.9	48.4
0	141965	269	48.4
0	142013	269.1	48.4
0	142061	269.2	48.4
0	142109	269.3	48.4
0	142157	269.4	48.4
0	142205	269.5	48.4
0	142253	269.6	48.4
0	142311	269.7	48.4
0	142369	269.8	48.4
0	142427	269.9	48.4
0	142489	270	48.4
0	142551	270.1	48.4
0	142609	270.2	48.4
0	142667	270.3	48.4
0	142729	270.4	48.4
0	142791	270.5	48.4
0	142849	270.6	48.4
0	142907	270.7	48.4
0	142969	270.8	48.4
0	143031	270.9	48.4
0	143093	271	48.4
0	143155	271.1	48.4
0	143217	271.2	48.4
0	143275	271.3	48.4
0	143333	271.4	48.4
0	143395	271.5	48.4
0	143453	271.6	48.4
0	143501	271.7	48.4
0	143549	271.8	48.4
0	143597	271.9	48.4
0	143645	272	48.4
0	143693	272.1	48.4
0	143741	272.2	48.4
0	143789	272.3	48.4
0	143837	272.4	48.4
0	143899	272.5	48.4
0	143961	272.6	48.4
0	144019	272.7	48.4
0	144081	272.8	48.4
0	144143	272.9	48.4
0	144205	273	48.4
0	144267	273.1	48.4
0	144329	273.2	48.4
0	144391	273.3	48.4
0	144453	273.4	48.4
0	144515	273.5	48.4
0	144577	273.6	48.4
0	144625	273.7	48.4
0	144673	273.8	48.4
0	144721	273.9	48.4
0	144769	274	48.4
0	144817	274.1	48.4
0	144865	274.2	48.4
0	144913	274.3	48.4
0	144961	274.4	48.4
0	145009	274.5	48.4
0	145057	274.6	48.4
0	145105	274.7	48.4
0	145153	274.8	48.4
0	145201	274.9	48.4
0	145249	275	48.4
0	145297	275.1	48.4
0	145345	275.2	48.4
0	145393	275.3	48.4
0	145441	275.4	48.4
0	145489	275.5	48.4
0	145537	275.6	48.4
0	145585	275.7	48.4
0	145633	275.8	48.4
0	145681	275.9	48.4
0	145729	276	48.4
0	145777	276.1	48.4
0	145825	276.2	48.4
0	145873	276.3	48.4
0	145921	276.4	48.4
0	145969	276.5	48.4
0	146017	276.6	48.4
0	146065	276.7	48.4
0	146113	276.8	48.4
0	146175	276.9	48.4
0	146233	277	48.4
0	146291	277.1	48.4
0	146353	277.2	48.4
0	146415	277.3	48.4
0	146477	277.4	48.4
0	146539	277.5	48.4
0	146601	277.6	48.4
0	146649	277.7	48.4
0	146697	277.8	48.4
0	146745	277.9	48.4
0	146793	278	48.4
0	146841	278.1	48.4
0	146889	278.2	48.4
0	146937	278.3	48.4
0	146985	278.4	48.4
0	147033	278.5	48.4
0	147095	278.6	48.4
0	147157	278.7	48.4
0	147219	278.8	48.4
0	147281	278.9	48.4
0	147343	279	48.4
0	147401	279.1	48.4
0	147459	279.2	48.4
0	147507	279.3	48.4
0	147555	279.4	48.4
0	147603	279.5	48.4
0	147651	279.6	48.4
0	147699	279.7	48.4
0	147747	279.8	48.4
0	147795	279.9	48.4
0	147843	280	48.4
0	147891	280.1	48.4
0	147939	280.2	48.4
0	147987	280.3	48.4
0	148035	280.4	48.4
0	148083	280.5	48.4
0	148131	280.6	48.4
0	148179	280.7	48.4
0	148227	280.8	48.4
0	148275	280.9	48.4
0	148323	281	48.4
0	148371	281.1	48.4
0	148419	281.2	48.4
0	148467	281.3	48.4
0	148515	281.4	48.4
0	148563	281.5	48.4
0	148611	281.6	48.4
0	148659	281.7	48.4
0	148707	281.8	48.4
0	148755	281.9	48.4
0	148803	282	48.4
0	148851	282.1	48.4
0	148899	282.2	48.4
0	148947	282.3	48.4
0	148995	282.4	48.4
0	149057	282.5	48.4
0	149119	282.6	48.4
0	149181	282.7	48.4
0	149243	282.8	48.4
0	149305	282.9	48.4
0	149367	283	48.4
0	149429	283.1	48.4
0	149487	283.2	48.4
0	149535	283.3	48.4
0	149583	283.4	48.4
0	149631	283.5	48.4
0	149679	283.6	48.4
0	149727	283.7	48.4
0	149775	283.8	48.4
0	149823	283.9	48.4
0	149871	284	48.4
0	149919	284.1	48.4
0	149981	284.2	48.4
0	150043	284.3	48.4
0	150105	284.4	48.4
0	150163	284.5	48.4
0	150221	284.6	48.4
0	150283	284.7	48.4
0	150345	284.8	48.4
0	150407	284.9	48.4
0	150469	285	48.4
0	150531	285.1	48.4
0	150593	285.2	48.4
0	150651	285.3	48.4
0	150713	285.4	48.4
0	150775	285.5	48.4
0	150837	285.6	48.4
0	150895	285.7	48.4
0	150957	285.8	48.4
0	151015	285.9	48.4
0	151073	286	48.4
0	151121	286.1	48.4
0	151169	286.2	48.4
0	151217	286.3	48.4
0	151265	286.4	48.4
0	151313	286.5	48.4
0	151361	286.6	48.4
0	151409	286.7	48.4
0	151457	286.8	48.4
0	151505	286.9	48.4
0	151567	287	48.4
0	151629	287.1	48.4
0	151691	287.2	48.4
0	151753	287.3	48.4
0	151815	287.4	48.4
0	151877	287.5	48.4
0	151939	287.6	48.4
0	151997	287.7	48.4
0	152055	287.8	48.4
0	152113	287.9	48.4
0	152175	288	48.4
0	152237	288.1	48.4
0	152299	288.2	48.4
0	152361	288.3	48.4
0	152423	288.4	48.4
0	152481	288.5	48.4
0	152543	288.6	48.4
0	152605	288.7	48.4
0	152663	288.8	48.4
0	152711	288.9	48.4
0	152759	289	48.4
0	152807	289.1	48.4
0	152855	289.2	48.4
0	152903	289.3	48.4
0	152951	289.4	48.4
0	152999	289.5	48.4
0	153047	289.6	48.4
0	153095	289.7	48.4
0	153157	289.8	48.4
0	153219	289.9	48.4
0	153281	290	48.4
0	153343	290.1	48.4
0	153405	290.2	48.4
0	153467	290.3	48.4
0	153529	290.4	48.4
0	153577	290.5	48.4
0	153625	290.6	48.4
0	153673	290.7	48.4
0	153721	290.8	48.4
0	153769	290.9	48.4
0	153817	291	48.4
0	153865	291.1	48.4
0	153913	291.2	48.4
0	153961	291.3	48.4
0	154009	291.4	48.4
0	154057	291.5	48.4
0	154105	291.6	48.4
0	154153	291.7	48.4
0	154201	291.8	48.4
0	154249	291.9	48.4
0	154297	292	48.4
0	154345	292.1	48.4
0	154393	292.2	48.4
0	154441	292.3	48.4
0	154489	292.4	48.4
0	154537	292.5	48.4
0	154585	292.6	48.4
0	154633	292.7	48.4
0	154681	292.8	48.4
0	154729	292.9	48.4
0	154777	293	48.4
0	154825	293.1	48.4
0	154873	293.2	48.4
0	154921	293.3	48.4
0	154969	293.4	48.4
0	155017	293.5	48.4
0	155065	293.6	48.4
0	155127	293.7	48.4
0	155189	293.8	48.4
0	155247	293.9	48.4
0	155309	294	48.4
0	155371	294.1	48.4
0	155433	294.2	48.4
0	155495	294.3	48.4
0	155557	294.4	48.4
0	155605	294.5	48.4
0	155653	294.6	48.4
0	155701	294.7	48.4
0	155749	294.8	48.4
0	155797	294.9	48.4
0	155845	295	48.4
0	155893	295.1	48.4
0	155941	295.2	48.4
0	155989	295.3	48.4
0	156051	295.4	48.4
0	156113	295.5	48.4
0	156175	295.6	48.4
0	156237	295.7	48.4
0	156299	295.8	48.4
0	156357	295.9	48.433549866678
0	156419	296	48.496604925677
0	156467	296.1	48.559659984675
0	156515	296.2	48.622715043674
0	156563	296.3	48.685770102672
0	156611	296.4	48.74882516167
0	156659	296.5	48.811880220669
0	156707	296.6	48.874935279667
0	156755	296.7	48.937990338666
0	156803	296.8	49.135828858404
0	156851	296.9	49.365522420904
0	156899	297	49.595215983404
0	156947	297.1	49.824909545904
0	156995	297.2	50.054603108404
0	157043	297.3	50.284296670903
0	157091	297.4	50.513990233403
0	157139	297.5	50.839472993172
0	157187	297.6	51.222295597338
0	157235	297.7	51.605118201505
0	157283	297.8	51.987940805671
0	157331	297.9	52.370763409837
0	157379	298	52.753586014004
0	157427	298.1	53.13640861817
0	157475	298.2	53.545372297357
0	157523	298.3	53.987329346555
0	157571	298.4	54.429286395754
0	157619	298.5	54.871243444953
0	157667	298.6	55.313200494151
0	157715	298.7	55.75515754335
0	157763	298.8	56.197114592548
0	157811	298.9	56.639071641747
0	157859	299	57.081028690945
0	157907	299.1	57.526322663933
0	157955	299.2	57.972845787752
0	158017	299.3	58.419368911572
0	158079	299.4	58.865892035392
0	158141	299.5	59.312415159211
0	158203	299.6	59.758938283031
0	158265	299.7	60.20546140685
0	158327	299.8	60.65198453067
0	158389	299.9	61.09850765449
0	158437	300	61.545030778309
0	158485	300.1	61.991553902129
0	158533	300.2	62.438077025949
0	158581	300.3	62.884600149768
0	158629	300.4	63.331123273588
0	158677	300.5	63.777646397407
0	158725	300.6	64.224169521227
0	158773	300.7	64.670692645047
0	158821	300.8	65.117215768866
0	158883	300.9	65.563738892686
0	158945	301	66.010262016506
0	159007	301.1	66.456785140325
0	159065	301.2	66.903308264145
0	159127	301.3	67.349831387964
0	159185	301.4	67.796354511784
0	159247	301.5	68.237781869889
0	159309	301.6	68.679167282878
0	159357	301.7	69.120552695867
0	159405	301.8	69.561938108856
0	159453	301.9	70.003323521845
0	159501	302	70.444708934833
0	159549	302.1	70.886094347822
0	159597	302.2	71.327479760811
0	159645	302.3	71.752960854367
0	159693	302.4	72.135722538353
0	159741	302.5	72.518545142519
0	159789	302.6	72.901367746686
0	159837	302.7	73.284190350852
0	159885	302.8	73.667012955018
0	159933	302.9	74.049835559185
0	159981	303	74.419594898011
0	160029	303.1	74.64928846051
0	160077	303.2	74.87898202301
0	160125	303.3	75.10867558551
0	160173	303.4	75.33836914801
0	160221	303.5	75.56806271051
0	160269	303.6	75.79775627301
0	160317	303.7	76.02744983551
0	160365	303.8	76.106938273976
0	160413	303.9	76.17007499529
0	160461	304	76.233211716604
0	160509	304.1	76.296348437918
0	160557	304.2	76.359485159232
0	160605	304.3	76.422621880547
0	160653	304.4	76.485758601861
0	160701	304.5	76.548895323175
0	160749	304.6	76.6
0	160797	304.7	76.6
0	160859	304.8	76.6
0	160921	304.9	76.6
0	160979	305	76.6
0	161041	305.1	76.6
0	161099	305.2	76.6
0	161161	305.3	76.6
0	161223	305.4	76.6
0	161285	305.5	76.6
0	161333	305.6	76.6
0	161381	305.7	76.6
0	161429	305.8	76.6
0	161477	305.9	76.6
0	161525	306	76.6
0	161573	306.1	76.6
0	161621	306.2	76.6
0	161669	306.3	76.6
0	161717	306.4	76.6
0	161779	306.5	76.6
0	161841	306.6	76.6
0	161903	306.7	76.6
0	161965	306.8	76.6
0	162027	306.9	76.6
0	162089	307	76.571477997018
0	162151	307.1	76.508320204415
0	162199	307.2	76.445162411813
0	162247	307.3	76.38200461921
0	162295	307.4	76.318846826607
0	162343	307.5	76.255689034004
0	162391	307.6	76.192531241401
0	162439	307.7	76.129373448798
0	162487	307.8	76.066215656195
0	162535	307.9	75.879222894087
0	162583	308	75.649452673514
0	162631	308.1	75.419682452941
0	162679	308.2	75.189912232368
0	162727	308.3	74.960142011796
0	162775	308.4	74.730371791223
0	162823	308.5	74.50060157065
0	162871	308.6	74.184718916795
0	162919	308.7	73.801768549173
0	162967	308.8	73.418818181552
0	163015	308.9	73.03586781393
0	163063	309	72.652917446309
0	163111	309.1	72.269967078687
0	163159	309.2	71.887016711066
0	163207	309.3	71.481524033513
0	163255	309.4	71.039419485292
0	163303	309.5	70.597314937072
0	163351	309.6	70.155210388852
0	163399	309.7	69.713105840631
0	163447	309.8	69.271001292411
0	163495	309.9	68.828896744191
0	163543	310	68.38679219597
0	163591	310.1	67.94468764775
0	163639	310.2	67.499610592089
0	163687	310.3	67.053087468269
0	163749	310.4	66.60656434445
0	163807	310.5	66.16004122063
0	163869	310.6	65.71351809681
0	163931	310.7	65.266994972991
0	163993	310.8	64.820471849171
0	164051	310.9	64.373948725351
0	164109	311	63.927425601532
0	164157	311.1	63.480902477712
0	164205	311.2	63.034379353893
0	164253	311.3	62.587856230073
0	164301	311.4	62.141333106253
0	164349	311.5	61.694809982434
0	164397	311.6	61.248286858614
0	164445	311.7	60.801763734794
0	164493	311.8	60.355240610975
0	164541	311.9	59.908717487155
0	164603	312	59.462194363336
0	164665	312.1	59.015671239516
0	164727	312.2	58.569148115696
0	164789	312.3	58.122624991877
0	164847	312.4	57.676101868057
0	164909	312.5	57.229578744237
0	164971	312.6	56.787181499154
0	165033	312.7	56.345076950934
0	165081	312.8	55.902972402714
0	165129	312.9	55.460867854493
0	165177	313	55.018763306273
0	165225	313.1	54.599852048356
0	165273	313.2	54.216901680735
0	165321	313.3	53.833951313113
0	165369	313.4	53.451000945492
0	165417	313.5	53.06805057787
0	165465	313.6	52.811060126149
0	165513	313.7	52.581289905576
0	165561	313.8	52.351519685003
0	165609	313.9	52.121749464431
0	165657	314	51.934051619596
0	165705	314.1	51.870893826994
0	165753	314.2	51.807736034391
0	165801	314.3	51.744578241788
0	165849	314.4	51.681420449185
0	165897	314.5	51.618262656582
0	165945	314.6	51.6
0	165993	314.7	51.6
0	166055	314.8	51.6
0	166117	314.9	51.6
0	166179	315	51.6
0	166237	315.1	51.6
0	166299	315.2	51.6
0	166361	315.3	51.6
0	166423	315.4	51.6
0	166471	315.5	51.6
0	166519	315.6	51.6
0	166567	315.7	51.6
0	166615	315.8	51.6
0	166663	315.9	51.6
0	166711	316	51.6
0	166759	316.1	51.6
0	166807	316.2	51.6
0	166855	316.3	51.6
0	166917	316.4	51.6
0	166979	316.5	51.6
0	167041	316.6	51.6
0	167103	316.7	51.6
0	167161	316.8	51.6
0	167219	316.9	51.6
0	167281	317	51.6
0	167343	317.1	51.6
0	167401	317.2	51.6
0	167459	317.3	51.6
0	167521	317.4	51.6
0	167583	317.5	51.6
0	167641	317.6	51.6
0	167703	317.7	51.6
0	167761	317.8	51.6
0	167823	317.9	51.6
0	167885	318	51.6
0	167943	318.1	51.6
0	168001	318.2	51.6
0	168049	318.3	51.6
0	168097	318.4	51.6
0	168145	318.5	51.6
0	168193	318.6	51.6
0	168241	318.7	51.6
0	168289	318.8	51.6
0	168337	318.9	51.6
0	168385	319	51.6
0	168433	319.1	51.6
0	168495	319.2	51.6
0	168557	319.3	51.6
0	168619	319.4	51.6
0	168681	319.5	51.6
0	168743	319.6	51.6
0	168805	319.7	51.6
0	168867	319.8	51.6
0	168925	319.9	51.6
0	168983	320	51.6
0	169041	320.1	51.6
0	169103	320.2	51.6
0	169161	320.3	51.6
0	169223	320.4	51.6
0	169285	320.5	51.6
0	169343	320.6	51.6
0	169405	320.7	51.6
0	169463	320.8	51.6
0	169525	320.9	51.6
0	169583	321	51.6
0	169631	321.1	51.6
0	169679	321.2	51.6
0	169727	321.3	51.6
0	169775	321.4	51.6
0	169823	321.5	51.6
0	169871	321.6	51.6
0	169919	321.7	51.6
0	169967	321.8	51.6
0	170015	321.9	51.6
0	170077	322	51.6
0	170139	322.1	51.6
0	170201	322.2	51.6
0	170259	322.3	51.6
0	170321	322.4	51.6
0	170383	322.5	51.6
0	170445	322.6	51.6
0	170503	322.7	51.6
0	170551	322.8	51.6
0	170599	322.9	51.6
0	170647	323	51.6
0	170695	323.1	51.6
0	170743	323.2	51.6
0	170791	323.3	51.6
0	170839	323.4	51.6
0	170887	323.5	51.6
0	170935	323.6	51.6
0	170983	323.7	51.6
0	171031	323.8	51.6
0	171079	323.9	51.6
0	171127	324	51.6
0	171175	324.1	51.6
0	171223	324.2	51.6
0	171271	324.3	51.6
0	171319	324.4	51.6
0	171367	324.5	51.6
0	171415	324.6	51.6
0	171463	324.7	51.6
0	171511	324.8	51.6
0	171559	324.9	51.6
0	171607	325	51.6
0	171655	325.1	51.6
0	171703	325.2	51.6
0	171751	325.3	51.6
0	171799	325.4	51.6
0	171847	325.5	51.6
0	171895	325.6	51.6
0	171943	325.7	51.6
0	171991	325.8	51.6
0	172039	325.9	51.6
0	172101	326	51.6
0	172159	326.1	51.6
0	172221	326.2	51.6
0	172283	326.3	51.6
0	172345	326.4	51.6
0	172407	326.5	51.6
0	172469	326.6	51.6
0	172517	326.7	51.6
0	172565	326.8	51.6
0	172613	326.9	51.6
0	172661	327	51.6
0	172709	327.1	51.6
0	172757	327.2	51.6
0	172805	327.3	51.6
0	172853	327.4	51.6
0	172901	327.5	51.6
0	172959	327.6	51.6
0	173021	327.7	51.6
0	173083	327.8	51.6
0	173145	327.9	51.6
0	173207	328	51.6
0	173269	328.1	51.6
0	173331	328.2	51.537223333152
0	173393	328.3	51.474168274153
0	173441	328.4	51.411113215155
0	173489	328.5	51.348058156157
0	173537	328.6	51.285003097158
0	173585	328.7	51.22194803816
0	173633	328.8	51.158892979161
0	173681	328.9	51.095837920163
0	173729	329	50.987363457068
0	173777	329.1	50.757705332855
0	173825	329.2	50.528011770355
0	173873	329.3	50.298318207855
0	173921	329.4	50.068624645355
0	173969	329.5	49.838931082856
0	174017	329.6	49.609237520356
0	174065	329.7	49.365906596427
0	174113	329.8	48.98308399226
0	174161	329.9	48.600261388094
0	174209	330	48.217438783927
0	174257	330.1	47.834616179761
0	174305	330.2	47.451793575595
0	174353	330.3	47.068970971428
0	174401	330.4	46.686148367262
0	174449	330.5	46.249775140997
0	174497	330.6	45.807818091799
0	174545	330.7	45.3658610426
0	174593	330.8	44.923903993402
0	174641	330.9	44.481946944203
0	174689	331	44.039989895005
0	174737	331.1	43.598032845806
0	174785	331.2	43.156075796607
0	174833	331.3	42.713231466148
0	174881	331.4	42.266708342328
0	174929	331.5	41.820185218509
0	174977	331.6	41.373662094689
0	175025	331.7	40.927138970869
0	175073	331.8	40.48061584705
0	175121	331.9	40.03409272323
0	175169	332	39.58756959941
0	175217	332.1	39.141046475591
0	175265	332.2	38.694523351771
0	175313	332.3	38.248000227952
0	175361	332.4	37.801477104132
0	175409	332.5	37.354953980312
0	175457	332.6	36.908430856493
0	175505	332.7	36.461907732673
0	175553	332.8	36.015384608853
0	175601	332.9	35.568861485034
0	175649	333	35.122338361214
0	175697	333.1	34.675815237395
0	175745	333.2	34.229292113575
0	175793	333.3	33.782768989755
0	175841	333.4	33.336245865936
0	175889	333.5	32.889722742116
0	175937	333.6	32.443199618296
0	175985	333.7	31.996676494477
0	176033	333.8	31.550153370657
0	176081	333.9	31.103630246838
0	176129	334	30.657107123018
0	176177	334.1	30.210583999198
0	176225	334.2	29.764060875379
0	176273	334.3	29.317537751559
0	176321	334.4	28.871014627739
0	176369	334.5	28.42449150392
0	176417	334.6	27.9779683801
0	176465	334.7	27.531445256281
0	176513	334.8	27.084922132461
0	176561	334.9	26.638399008641
0	176609	335	26.191875884822
0	176657	335.1	25.745352761002
0	176705	335.2	25.298829637182

