version 3
run General-0-20230607-10:29:09-79427
attr configname General
attr datetime 20230607-10:29:09
attr datetimef 20230607-102909
attr experiment General
attr inifile omnetpp.ini
attr iterationvars ""
attr iterationvarsd ""
attr iterationvarsf ""
attr measurement ""
attr network myHospitalNetwork
attr processid 79427
attr repetition 0
attr replication #0
attr resultdir results
attr runnumber 0
attr seedset 0
config image-path ../../../inet/images:../../../veins/images
config cmdenv-express-mode true
config cmdenv-autoflush true
config cmdenv-status-frequency 0.1s
config **.cmdenv-log-level info
config ned-path .
config image-path ../../images
config network myHospitalNetwork
config debug-on-errors true
config print-undisposed false
config sim-time-limit 3600s
config **.scalar-recording true
config **.vector-recording true
config *.playgroundSizeX 2500m
config *.playgroundSizeY 2500m
config *.playgroundSizeZ 50m
config *.annotations.draw true
config *.manager.updateInterval 0.1s
config *.manager.host "\"localhost\""
config *.manager.port 9999
config *.manager.autoShutdown true
config *.manager.launchConfig "xmldoc(\"vd012.launchd.xml\")"
config *.manager.moduleType "\"agv=org.car2x.veins.nodes.Car pedestrian=gr2.veins_inet.IPerson\""
config *.manager.moduleName "\"agv=node pedestrian=personNode\""
config *.manager.moduleDisplayString "\"agv='i=veins/node/car;is=vs' pedestrian='i=veins/node/pedestrian;is=vs'\""
config *.rsu[0].mobility.x 300
config *.rsu[0].mobility.y 300
config *.rsu[0].mobility.z 3
config *.rsu[*].applType "\"HospitalControlApp\""
config *.rsu[*].appl.headerLength "80 bit"
config *.rsu[*].appl.sendBeacons false
config *.rsu[*].appl.dataOnSch false
config *.rsu[*].nic.phy80211p.antennaOffsetZ "0 m"
config *.connectionManager.sendDirect true
config *.connectionManager.maxInterfDist 2600m
config *.connectionManager.drawMaxIntfDist false
config *.**.nic.mac1609_4.useServiceChannel true
config *.**.nic.mac1609_4.txPower 20mW
config *.**.nic.mac1609_4.bitrate 6Mbps
config *.**.nic.phy80211p.minPowerLevel -110dBm
config *.**.nic.phy80211p.useNoiseFloor true
config *.**.nic.phy80211p.noiseFloor -98dBm
config *.**.nic.phy80211p.decider "xmldoc(\"config.xml\")"
config *.**.nic.phy80211p.analogueModels "xmldoc(\"config.xml\")"
config *.**.nic.phy80211p.usePropagationDelay true
config *.**.nic.phy80211p.antenna "xmldoc(\"antenna.xml\", \"/root/Antenna[@id='monopole']\")"
config *.node[*].nic.phy80211p.antennaOffsetY "0 m"
config *.node[*].nic.phy80211p.antennaOffsetZ "1.895 m"
config *.node[*].applType "\"AGVControlApp\""
config *.node[*].appl.headerLength "80 bit"
config *.node[*].appl.sendBeacons false
config *.node[*].appl.dataOnSch true
config *.node[*].appl.beaconInterval 0.1s
config *.node[*].veinsmobility.x 0
config *.node[*].veinsmobility.y 0
config *.node[*].veinsmobility.z 0
config *.node[*].veinsmobility.setHostSpeed false
config *.node[*0].veinsmobility.accidentCount 0

par myHospitalNetwork.node[0].appl typename "\"gr2.veins_inet.AGVControlApp\""
par myHospitalNetwork.node[0].appl headerLength 80bit
attr unit bit
par myHospitalNetwork.node[0].appl sendBeacons false
par myHospitalNetwork.node[0].appl beaconLengthBits 256bit
attr unit bit
par myHospitalNetwork.node[0].appl beaconUserPriority 7
par myHospitalNetwork.node[0].appl beaconInterval 0.1s
attr unit s
par myHospitalNetwork.node[0].appl dataLengthBits 1024bit
attr unit bit
par myHospitalNetwork.node[0].appl dataOnSch true
par myHospitalNetwork.node[0].appl dataUserPriority 7
par myHospitalNetwork.node[0].appl avoidBeaconSynchronization true
par myHospitalNetwork.node[0].appl sendWSA false
par myHospitalNetwork.node[0].appl wsaLengthBits 250bit
attr unit bit
par myHospitalNetwork.node[0].appl wsaInterval 1s
attr unit s
par myHospitalNetwork.node[0].appl appName "\"My first Veins App!\""
scalar myHospitalNetwork.node[0].appl generatedWSMs 0
scalar myHospitalNetwork.node[0].appl receivedWSMs 0
scalar myHospitalNetwork.node[0].appl generatedBSMs 1570
scalar myHospitalNetwork.node[0].appl receivedBSMs 0
scalar myHospitalNetwork.node[0].appl generatedWSAs 0
scalar myHospitalNetwork.node[0].appl receivedWSAs 0
par myHospitalNetwork.node[0].nic.phy80211p typename "\"org.car2x.veins.modules.phy.PhyLayer80211p\""
par myHospitalNetwork.node[0].nic.phy80211p recordStats false
par myHospitalNetwork.node[0].nic.phy80211p usePropagationDelay true
par myHospitalNetwork.node[0].nic.phy80211p noiseFloor -98dBm
attr unit dBm
par myHospitalNetwork.node[0].nic.phy80211p useNoiseFloor true
par myHospitalNetwork.node[0].nic.phy80211p antenna "<Antenna type=\"SampledAntenna1D\" id=\"monopole\">...</Antenna> at /home/duong/Desktop/omnetpp-6.0.1/workspace/Gr2/simulations/hh//antenna.xml:35"
par myHospitalNetwork.node[0].nic.phy80211p antennaOffsetX 0m
attr unit m
par myHospitalNetwork.node[0].nic.phy80211p antennaOffsetY 0m
attr unit m
par myHospitalNetwork.node[0].nic.phy80211p antennaOffsetZ 1.895m
attr unit m
par myHospitalNetwork.node[0].nic.phy80211p antennaOffsetYaw 0rad
attr unit rad
par myHospitalNetwork.node[0].nic.phy80211p analogueModels "<root>...</root> at /home/duong/Desktop/omnetpp-6.0.1/workspace/Gr2/simulations/hh//config.xml:34"
par myHospitalNetwork.node[0].nic.phy80211p decider "<root>...</root> at /home/duong/Desktop/omnetpp-6.0.1/workspace/Gr2/simulations/hh//config.xml:34"
par myHospitalNetwork.node[0].nic.phy80211p minPowerLevel -110dBm
attr unit dBm
par myHospitalNetwork.node[0].nic.phy80211p timeRXToTX 0s
attr unit s
par myHospitalNetwork.node[0].nic.phy80211p timeRXToSleep 0s
attr unit s
par myHospitalNetwork.node[0].nic.phy80211p timeTXToRX 0s
attr unit s
par myHospitalNetwork.node[0].nic.phy80211p timeTXToSleep 0s
attr unit s
par myHospitalNetwork.node[0].nic.phy80211p timeSleepToRX 0s
attr unit s
par myHospitalNetwork.node[0].nic.phy80211p timeSleepToTX 0s
attr unit s
par myHospitalNetwork.node[0].nic.phy80211p initialRadioState 0
par myHospitalNetwork.node[0].nic.phy80211p radioMinAtt 1
par myHospitalNetwork.node[0].nic.phy80211p radioMaxAtt 0
par myHospitalNetwork.node[0].nic.phy80211p nbRadioChannels 1
par myHospitalNetwork.node[0].nic.phy80211p initialRadioChannel 0
par myHospitalNetwork.node[0].nic.phy80211p ccaThreshold -65dBm
attr unit dBm
par myHospitalNetwork.node[0].nic.phy80211p collectCollisionStatistics false
par myHospitalNetwork.node[0].nic.phy80211p allowTxDuringRx false
scalar myHospitalNetwork.node[0].nic.phy80211p busyTime 0.028914802547767
par myHospitalNetwork.node[0].nic.mac1609_4 typename "\"org.car2x.veins.modules.mac.ieee80211p.Mac1609_4\""
par myHospitalNetwork.node[0].nic.mac1609_4 notAffectedByHostState false
par myHospitalNetwork.node[0].nic.mac1609_4 headerLength 0bit
attr unit bit
par myHospitalNetwork.node[0].nic.mac1609_4 address "\"auto\""
par myHospitalNetwork.node[0].nic.mac1609_4 useServiceChannel true
par myHospitalNetwork.node[0].nic.mac1609_4 serviceChannel 1
par myHospitalNetwork.node[0].nic.mac1609_4 bitrate 6000000bps
attr unit bps
par myHospitalNetwork.node[0].nic.mac1609_4 syncOffset 0.0003s
attr unit s
par myHospitalNetwork.node[0].nic.mac1609_4 txPower 20mW
attr unit mW
par myHospitalNetwork.node[0].nic.mac1609_4 queueSize 0
par myHospitalNetwork.node[0].nic.mac1609_4 dot11RTSThreshold 12000bit
attr unit bit
par myHospitalNetwork.node[0].nic.mac1609_4 dot11ShortRetryLimit 7
par myHospitalNetwork.node[0].nic.mac1609_4 dot11LongRetryLimit 4
par myHospitalNetwork.node[0].nic.mac1609_4 ackLength 112bit
attr unit bit
par myHospitalNetwork.node[0].nic.mac1609_4 useAcks false
par myHospitalNetwork.node[0].nic.mac1609_4 frameErrorRate 0
par myHospitalNetwork.node[0].nic.mac1609_4 ackErrorRate 0
scalar myHospitalNetwork.node[0].nic.mac1609_4 ReceivedUnicastPackets 0
scalar myHospitalNetwork.node[0].nic.mac1609_4 ReceivedBroadcasts 9661
scalar myHospitalNetwork.node[0].nic.mac1609_4 SentPackets 3138
scalar myHospitalNetwork.node[0].nic.mac1609_4 SentAcknowledgements 0
scalar myHospitalNetwork.node[0].nic.mac1609_4 RetriesExceeded 0
scalar myHospitalNetwork.node[0].nic.mac1609_4 SNIRLostPackets 15979
scalar myHospitalNetwork.node[0].nic.mac1609_4 RXTXLostPackets 6584
scalar myHospitalNetwork.node[0].nic.mac1609_4 TotalLostPackets 22563
scalar myHospitalNetwork.node[0].nic.mac1609_4 DroppedPacketsInMac 0
scalar myHospitalNetwork.node[0].nic.mac1609_4 TooLittleTime 68
scalar myHospitalNetwork.node[0].nic.mac1609_4 TimesIntoBackoff 5117
scalar myHospitalNetwork.node[0].nic.mac1609_4 SlotsBackoff 4622
scalar myHospitalNetwork.node[0].nic.mac1609_4 NumInternalContention 0
scalar myHospitalNetwork.node[0].nic.mac1609_4 totalBusyTime 3.307231932895
scalar myHospitalNetwork.node[0].nic.mac1609_4 retriesExceeded:count 0
attr recordingmode count
attr source org_car2x_veins_modules_mac_sigRetriesExceeded
scalar myHospitalNetwork.node[0].nic.mac1609_4 sentAcks:count 0
attr recordingmode count
attr source org_car2x_veins_modules_mac_sigSentAck
scalar myHospitalNetwork.node[0].nic.mac1609_4 sentPackets:count 3138
attr recordingmode count
attr source org_car2x_veins_modules_mac_sigSentPacket
scalar myHospitalNetwork.node[0].nic.mac1609_4 collisions:count 0
attr recordingmode count
attr source org_car2x_veins_modules_mac_sigCollision
scalar myHospitalNetwork.node[0].nic.mac1609_4 channelBusy:timeavg 0.021065171547102
attr recordingmode timeavg
attr source org_car2x_veins_modules_mac_sigChannelBusy
par myHospitalNetwork.node[0].nic typename "\"org.car2x.veins.modules.nic.Nic80211p\""
par myHospitalNetwork.node[0].nic connectionManagerName "\"connectionManager\""
par myHospitalNetwork.node[0].veinsmobility typename "\"org.car2x.veins.modules.mobility.traci.TraCIMobility\""
par myHospitalNetwork.node[0].veinsmobility notAffectedByHostState true
par myHospitalNetwork.node[0].veinsmobility x 0
par myHospitalNetwork.node[0].veinsmobility y 0
par myHospitalNetwork.node[0].veinsmobility z 0
par myHospitalNetwork.node[0].veinsmobility xOrientation 1
par myHospitalNetwork.node[0].veinsmobility yOrientation 0
par myHospitalNetwork.node[0].veinsmobility zOrientation 0
par myHospitalNetwork.node[0].veinsmobility hostPositionOffset 0m
attr unit m
par myHospitalNetwork.node[0].veinsmobility setHostSpeed false
par myHospitalNetwork.node[0].veinsmobility accidentCount 0
par myHospitalNetwork.node[0].veinsmobility accidentStart 46.3465s
attr unit s
par myHospitalNetwork.node[0].veinsmobility accidentDuration "uniform(30s, 60s)"
attr unit s
par myHospitalNetwork.node[0].veinsmobility accidentInterval "uniform(30s, 60s)"
attr unit s
scalar myHospitalNetwork.node[0].veinsmobility startTime 0.1
scalar myHospitalNetwork.node[0].veinsmobility totalTime 156.9
scalar myHospitalNetwork.node[0].veinsmobility stopTime 157.1
scalar myHospitalNetwork.node[0].veinsmobility minSpeed 1.9
scalar myHospitalNetwork.node[0].veinsmobility maxSpeed 4.4652312381963
scalar myHospitalNetwork.node[0].veinsmobility totalDistance 699.78426935373
scalar myHospitalNetwork.node[0].veinsmobility totalCO2Emission 211.34864698124
par myHospitalNetwork.node[0] typename "\"org.car2x.veins.nodes.Car\""
par myHospitalNetwork.node[0] applType "\"AGVControlApp\""
par myHospitalNetwork.node[0] nicType "\"Nic80211p\""
par myHospitalNetwork.node[0] veinsmobilityType "\"org.car2x.veins.modules.mobility.traci.TraCIMobility\""
par myHospitalNetwork.node[2].appl typename "\"gr2.veins_inet.AGVControlApp\""
par myHospitalNetwork.node[2].appl headerLength 80bit
attr unit bit
par myHospitalNetwork.node[2].appl sendBeacons false
par myHospitalNetwork.node[2].appl beaconLengthBits 256bit
attr unit bit
par myHospitalNetwork.node[2].appl beaconUserPriority 7
par myHospitalNetwork.node[2].appl beaconInterval 0.1s
attr unit s
par myHospitalNetwork.node[2].appl dataLengthBits 1024bit
attr unit bit
par myHospitalNetwork.node[2].appl dataOnSch true
par myHospitalNetwork.node[2].appl dataUserPriority 7
par myHospitalNetwork.node[2].appl avoidBeaconSynchronization true
par myHospitalNetwork.node[2].appl sendWSA false
par myHospitalNetwork.node[2].appl wsaLengthBits 250bit
attr unit bit
par myHospitalNetwork.node[2].appl wsaInterval 1s
attr unit s
par myHospitalNetwork.node[2].appl appName "\"My first Veins App!\""
scalar myHospitalNetwork.node[2].appl generatedWSMs 0
scalar myHospitalNetwork.node[2].appl receivedWSMs 0
scalar myHospitalNetwork.node[2].appl generatedBSMs 1613
scalar myHospitalNetwork.node[2].appl receivedBSMs 0
scalar myHospitalNetwork.node[2].appl generatedWSAs 0
scalar myHospitalNetwork.node[2].appl receivedWSAs 0
par myHospitalNetwork.node[2].nic.phy80211p typename "\"org.car2x.veins.modules.phy.PhyLayer80211p\""
par myHospitalNetwork.node[2].nic.phy80211p recordStats false
par myHospitalNetwork.node[2].nic.phy80211p usePropagationDelay true
par myHospitalNetwork.node[2].nic.phy80211p noiseFloor -98dBm
attr unit dBm
par myHospitalNetwork.node[2].nic.phy80211p useNoiseFloor true
par myHospitalNetwork.node[2].nic.phy80211p antenna "<Antenna type=\"SampledAntenna1D\" id=\"monopole\">...</Antenna> at /home/duong/Desktop/omnetpp-6.0.1/workspace/Gr2/simulations/hh//antenna.xml:35"
par myHospitalNetwork.node[2].nic.phy80211p antennaOffsetX 0m
attr unit m
par myHospitalNetwork.node[2].nic.phy80211p antennaOffsetY 0m
attr unit m
par myHospitalNetwork.node[2].nic.phy80211p antennaOffsetZ 1.895m
attr unit m
par myHospitalNetwork.node[2].nic.phy80211p antennaOffsetYaw 0rad
attr unit rad
par myHospitalNetwork.node[2].nic.phy80211p analogueModels "<root>...</root> at /home/duong/Desktop/omnetpp-6.0.1/workspace/Gr2/simulations/hh//config.xml:34"
par myHospitalNetwork.node[2].nic.phy80211p decider "<root>...</root> at /home/duong/Desktop/omnetpp-6.0.1/workspace/Gr2/simulations/hh//config.xml:34"
par myHospitalNetwork.node[2].nic.phy80211p minPowerLevel -110dBm
attr unit dBm
par myHospitalNetwork.node[2].nic.phy80211p timeRXToTX 0s
attr unit s
par myHospitalNetwork.node[2].nic.phy80211p timeRXToSleep 0s
attr unit s
par myHospitalNetwork.node[2].nic.phy80211p timeTXToRX 0s
attr unit s
par myHospitalNetwork.node[2].nic.phy80211p timeTXToSleep 0s
attr unit s
par myHospitalNetwork.node[2].nic.phy80211p timeSleepToRX 0s
attr unit s
par myHospitalNetwork.node[2].nic.phy80211p timeSleepToTX 0s
attr unit s
par myHospitalNetwork.node[2].nic.phy80211p initialRadioState 0
par myHospitalNetwork.node[2].nic.phy80211p radioMinAtt 1
par myHospitalNetwork.node[2].nic.phy80211p radioMaxAtt 0
par myHospitalNetwork.node[2].nic.phy80211p nbRadioChannels 1
par myHospitalNetwork.node[2].nic.phy80211p initialRadioChannel 0
par myHospitalNetwork.node[2].nic.phy80211p ccaThreshold -65dBm
attr unit dBm
par myHospitalNetwork.node[2].nic.phy80211p collectCollisionStatistics false
par myHospitalNetwork.node[2].nic.phy80211p allowTxDuringRx false
scalar myHospitalNetwork.node[2].nic.phy80211p busyTime 0.03173371357718
par myHospitalNetwork.node[2].nic.mac1609_4 typename "\"org.car2x.veins.modules.mac.ieee80211p.Mac1609_4\""
par myHospitalNetwork.node[2].nic.mac1609_4 notAffectedByHostState false
par myHospitalNetwork.node[2].nic.mac1609_4 headerLength 0bit
attr unit bit
par myHospitalNetwork.node[2].nic.mac1609_4 address "\"auto\""
par myHospitalNetwork.node[2].nic.mac1609_4 useServiceChannel true
par myHospitalNetwork.node[2].nic.mac1609_4 serviceChannel 1
par myHospitalNetwork.node[2].nic.mac1609_4 bitrate 6000000bps
attr unit bps
par myHospitalNetwork.node[2].nic.mac1609_4 syncOffset 0.0003s
attr unit s
par myHospitalNetwork.node[2].nic.mac1609_4 txPower 20mW
attr unit mW
par myHospitalNetwork.node[2].nic.mac1609_4 queueSize 0
par myHospitalNetwork.node[2].nic.mac1609_4 dot11RTSThreshold 12000bit
attr unit bit
par myHospitalNetwork.node[2].nic.mac1609_4 dot11ShortRetryLimit 7
par myHospitalNetwork.node[2].nic.mac1609_4 dot11LongRetryLimit 4
par myHospitalNetwork.node[2].nic.mac1609_4 ackLength 112bit
attr unit bit
par myHospitalNetwork.node[2].nic.mac1609_4 useAcks false
par myHospitalNetwork.node[2].nic.mac1609_4 frameErrorRate 0
par myHospitalNetwork.node[2].nic.mac1609_4 ackErrorRate 0
scalar myHospitalNetwork.node[2].nic.mac1609_4 ReceivedUnicastPackets 0
scalar myHospitalNetwork.node[2].nic.mac1609_4 ReceivedBroadcasts 9512
scalar myHospitalNetwork.node[2].nic.mac1609_4 SentPackets 3224
scalar myHospitalNetwork.node[2].nic.mac1609_4 SentAcknowledgements 0
scalar myHospitalNetwork.node[2].nic.mac1609_4 RetriesExceeded 0
scalar myHospitalNetwork.node[2].nic.mac1609_4 SNIRLostPackets 19237
scalar myHospitalNetwork.node[2].nic.mac1609_4 RXTXLostPackets 4887
scalar myHospitalNetwork.node[2].nic.mac1609_4 TotalLostPackets 24124
scalar myHospitalNetwork.node[2].nic.mac1609_4 DroppedPacketsInMac 0
scalar myHospitalNetwork.node[2].nic.mac1609_4 TooLittleTime 1445
scalar myHospitalNetwork.node[2].nic.mac1609_4 TimesIntoBackoff 6448
scalar myHospitalNetwork.node[2].nic.mac1609_4 SlotsBackoff 4801
scalar myHospitalNetwork.node[2].nic.mac1609_4 NumInternalContention 0
scalar myHospitalNetwork.node[2].nic.mac1609_4 totalBusyTime 3.306089157884
scalar myHospitalNetwork.node[2].nic.mac1609_4 retriesExceeded:count 0
attr recordingmode count
attr source org_car2x_veins_modules_mac_sigRetriesExceeded
scalar myHospitalNetwork.node[2].nic.mac1609_4 sentAcks:count 0
attr recordingmode count
attr source org_car2x_veins_modules_mac_sigSentAck
scalar myHospitalNetwork.node[2].nic.mac1609_4 sentPackets:count 3224
attr recordingmode count
attr source org_car2x_veins_modules_mac_sigSentPacket
scalar myHospitalNetwork.node[2].nic.mac1609_4 collisions:count 0
attr recordingmode count
attr source org_car2x_veins_modules_mac_sigCollision
scalar myHospitalNetwork.node[2].nic.mac1609_4 channelBusy:timeavg 0.020496522987502
attr recordingmode timeavg
attr source org_car2x_veins_modules_mac_sigChannelBusy
par myHospitalNetwork.node[2].nic typename "\"org.car2x.veins.modules.nic.Nic80211p\""
par myHospitalNetwork.node[2].nic connectionManagerName "\"connectionManager\""
par myHospitalNetwork.node[2].veinsmobility typename "\"org.car2x.veins.modules.mobility.traci.TraCIMobility\""
par myHospitalNetwork.node[2].veinsmobility notAffectedByHostState true
par myHospitalNetwork.node[2].veinsmobility x 0
par myHospitalNetwork.node[2].veinsmobility y 0
par myHospitalNetwork.node[2].veinsmobility z 0
par myHospitalNetwork.node[2].veinsmobility xOrientation 1
par myHospitalNetwork.node[2].veinsmobility yOrientation 0
par myHospitalNetwork.node[2].veinsmobility zOrientation 0
par myHospitalNetwork.node[2].veinsmobility hostPositionOffset 0m
attr unit m
par myHospitalNetwork.node[2].veinsmobility setHostSpeed false
par myHospitalNetwork.node[2].veinsmobility accidentCount 0
par myHospitalNetwork.node[2].veinsmobility accidentStart 45.6311s
attr unit s
par myHospitalNetwork.node[2].veinsmobility accidentDuration "uniform(30s, 60s)"
attr unit s
par myHospitalNetwork.node[2].veinsmobility accidentInterval "uniform(30s, 60s)"
attr unit s
scalar myHospitalNetwork.node[2].veinsmobility startTime 2.1
scalar myHospitalNetwork.node[2].veinsmobility totalTime 161.2
scalar myHospitalNetwork.node[2].veinsmobility stopTime 163.4
scalar myHospitalNetwork.node[2].veinsmobility minSpeed 1.9
scalar myHospitalNetwork.node[2].veinsmobility maxSpeed 4.7413688521504
scalar myHospitalNetwork.node[2].veinsmobility totalDistance 763.30645622758
scalar myHospitalNetwork.node[2].veinsmobility totalCO2Emission 219.84072523142
par myHospitalNetwork.node[2] typename "\"org.car2x.veins.nodes.Car\""
par myHospitalNetwork.node[2] applType "\"AGVControlApp\""
par myHospitalNetwork.node[2] nicType "\"Nic80211p\""
par myHospitalNetwork.node[2] veinsmobilityType "\"org.car2x.veins.modules.mobility.traci.TraCIMobility\""
par myHospitalNetwork.node[4].appl typename "\"gr2.veins_inet.AGVControlApp\""
par myHospitalNetwork.node[4].appl headerLength 80bit
attr unit bit
par myHospitalNetwork.node[4].appl sendBeacons false
par myHospitalNetwork.node[4].appl beaconLengthBits 256bit
attr unit bit
par myHospitalNetwork.node[4].appl beaconUserPriority 7
par myHospitalNetwork.node[4].appl beaconInterval 0.1s
attr unit s
par myHospitalNetwork.node[4].appl dataLengthBits 1024bit
attr unit bit
par myHospitalNetwork.node[4].appl dataOnSch true
par myHospitalNetwork.node[4].appl dataUserPriority 7
par myHospitalNetwork.node[4].appl avoidBeaconSynchronization true
par myHospitalNetwork.node[4].appl sendWSA false
par myHospitalNetwork.node[4].appl wsaLengthBits 250bit
attr unit bit
par myHospitalNetwork.node[4].appl wsaInterval 1s
attr unit s
par myHospitalNetwork.node[4].appl appName "\"My first Veins App!\""
scalar myHospitalNetwork.node[4].appl generatedWSMs 0
scalar myHospitalNetwork.node[4].appl receivedWSMs 0
scalar myHospitalNetwork.node[4].appl generatedBSMs 1780
scalar myHospitalNetwork.node[4].appl receivedBSMs 0
scalar myHospitalNetwork.node[4].appl generatedWSAs 0
scalar myHospitalNetwork.node[4].appl receivedWSAs 0
par myHospitalNetwork.node[4].nic.phy80211p typename "\"org.car2x.veins.modules.phy.PhyLayer80211p\""
par myHospitalNetwork.node[4].nic.phy80211p recordStats false
par myHospitalNetwork.node[4].nic.phy80211p usePropagationDelay true
par myHospitalNetwork.node[4].nic.phy80211p noiseFloor -98dBm
attr unit dBm
par myHospitalNetwork.node[4].nic.phy80211p useNoiseFloor true
par myHospitalNetwork.node[4].nic.phy80211p antenna "<Antenna type=\"SampledAntenna1D\" id=\"monopole\">...</Antenna> at /home/duong/Desktop/omnetpp-6.0.1/workspace/Gr2/simulations/hh//antenna.xml:35"
par myHospitalNetwork.node[4].nic.phy80211p antennaOffsetX 0m
attr unit m
par myHospitalNetwork.node[4].nic.phy80211p antennaOffsetY 0m
attr unit m
par myHospitalNetwork.node[4].nic.phy80211p antennaOffsetZ 1.895m
attr unit m
par myHospitalNetwork.node[4].nic.phy80211p antennaOffsetYaw 0rad
attr unit rad
par myHospitalNetwork.node[4].nic.phy80211p analogueModels "<root>...</root> at /home/duong/Desktop/omnetpp-6.0.1/workspace/Gr2/simulations/hh//config.xml:34"
par myHospitalNetwork.node[4].nic.phy80211p decider "<root>...</root> at /home/duong/Desktop/omnetpp-6.0.1/workspace/Gr2/simulations/hh//config.xml:34"
par myHospitalNetwork.node[4].nic.phy80211p minPowerLevel -110dBm
attr unit dBm
par myHospitalNetwork.node[4].nic.phy80211p timeRXToTX 0s
attr unit s
par myHospitalNetwork.node[4].nic.phy80211p timeRXToSleep 0s
attr unit s
par myHospitalNetwork.node[4].nic.phy80211p timeTXToRX 0s
attr unit s
par myHospitalNetwork.node[4].nic.phy80211p timeTXToSleep 0s
attr unit s
par myHospitalNetwork.node[4].nic.phy80211p timeSleepToRX 0s
attr unit s
par myHospitalNetwork.node[4].nic.phy80211p timeSleepToTX 0s
attr unit s
par myHospitalNetwork.node[4].nic.phy80211p initialRadioState 0
par myHospitalNetwork.node[4].nic.phy80211p radioMinAtt 1
par myHospitalNetwork.node[4].nic.phy80211p radioMaxAtt 0
par myHospitalNetwork.node[4].nic.phy80211p nbRadioChannels 1
par myHospitalNetwork.node[4].nic.phy80211p initialRadioChannel 0
par myHospitalNetwork.node[4].nic.phy80211p ccaThreshold -65dBm
attr unit dBm
par myHospitalNetwork.node[4].nic.phy80211p collectCollisionStatistics false
par myHospitalNetwork.node[4].nic.phy80211p allowTxDuringRx false
scalar myHospitalNetwork.node[4].nic.phy80211p busyTime 0.032920629213476
par myHospitalNetwork.node[4].nic.mac1609_4 typename "\"org.car2x.veins.modules.mac.ieee80211p.Mac1609_4\""
par myHospitalNetwork.node[4].nic.mac1609_4 notAffectedByHostState false
par myHospitalNetwork.node[4].nic.mac1609_4 headerLength 0bit
attr unit bit
par myHospitalNetwork.node[4].nic.mac1609_4 address "\"auto\""
par myHospitalNetwork.node[4].nic.mac1609_4 useServiceChannel true
par myHospitalNetwork.node[4].nic.mac1609_4 serviceChannel 1
par myHospitalNetwork.node[4].nic.mac1609_4 bitrate 6000000bps
attr unit bps
par myHospitalNetwork.node[4].nic.mac1609_4 syncOffset 0.0003s
attr unit s
par myHospitalNetwork.node[4].nic.mac1609_4 txPower 20mW
attr unit mW
par myHospitalNetwork.node[4].nic.mac1609_4 queueSize 0
par myHospitalNetwork.node[4].nic.mac1609_4 dot11RTSThreshold 12000bit
attr unit bit
par myHospitalNetwork.node[4].nic.mac1609_4 dot11ShortRetryLimit 7
par myHospitalNetwork.node[4].nic.mac1609_4 dot11LongRetryLimit 4
par myHospitalNetwork.node[4].nic.mac1609_4 ackLength 112bit
attr unit bit
par myHospitalNetwork.node[4].nic.mac1609_4 useAcks false
par myHospitalNetwork.node[4].nic.mac1609_4 frameErrorRate 0
par myHospitalNetwork.node[4].nic.mac1609_4 ackErrorRate 0
scalar myHospitalNetwork.node[4].nic.mac1609_4 ReceivedUnicastPackets 0
scalar myHospitalNetwork.node[4].nic.mac1609_4 ReceivedBroadcasts 12088
scalar myHospitalNetwork.node[4].nic.mac1609_4 SentPackets 3558
scalar myHospitalNetwork.node[4].nic.mac1609_4 SentAcknowledgements 0
scalar myHospitalNetwork.node[4].nic.mac1609_4 RetriesExceeded 0
scalar myHospitalNetwork.node[4].nic.mac1609_4 SNIRLostPackets 20879
scalar myHospitalNetwork.node[4].nic.mac1609_4 RXTXLostPackets 5001
scalar myHospitalNetwork.node[4].nic.mac1609_4 TotalLostPackets 25880
scalar myHospitalNetwork.node[4].nic.mac1609_4 DroppedPacketsInMac 0
scalar myHospitalNetwork.node[4].nic.mac1609_4 TooLittleTime 3360
scalar myHospitalNetwork.node[4].nic.mac1609_4 TimesIntoBackoff 7116
scalar myHospitalNetwork.node[4].nic.mac1609_4 SlotsBackoff 5244
scalar myHospitalNetwork.node[4].nic.mac1609_4 NumInternalContention 0
scalar myHospitalNetwork.node[4].nic.mac1609_4 totalBusyTime 3.580932630618
scalar myHospitalNetwork.node[4].nic.mac1609_4 retriesExceeded:count 0
attr recordingmode count
attr source org_car2x_veins_modules_mac_sigRetriesExceeded
scalar myHospitalNetwork.node[4].nic.mac1609_4 sentAcks:count 0
attr recordingmode count
attr source org_car2x_veins_modules_mac_sigSentAck
scalar myHospitalNetwork.node[4].nic.mac1609_4 sentPackets:count 3558
attr recordingmode count
attr source org_car2x_veins_modules_mac_sigSentPacket
scalar myHospitalNetwork.node[4].nic.mac1609_4 collisions:count 0
attr recordingmode count
attr source org_car2x_veins_modules_mac_sigCollision
scalar myHospitalNetwork.node[4].nic.mac1609_4 channelBusy:timeavg 0.020117599048416
attr recordingmode timeavg
attr source org_car2x_veins_modules_mac_sigChannelBusy
par myHospitalNetwork.node[4].nic typename "\"org.car2x.veins.modules.nic.Nic80211p\""
par myHospitalNetwork.node[4].nic connectionManagerName "\"connectionManager\""
par myHospitalNetwork.node[4].veinsmobility typename "\"org.car2x.veins.modules.mobility.traci.TraCIMobility\""
par myHospitalNetwork.node[4].veinsmobility notAffectedByHostState true
par myHospitalNetwork.node[4].veinsmobility x 0
par myHospitalNetwork.node[4].veinsmobility y 0
par myHospitalNetwork.node[4].veinsmobility z 0
par myHospitalNetwork.node[4].veinsmobility xOrientation 1
par myHospitalNetwork.node[4].veinsmobility yOrientation 0
par myHospitalNetwork.node[4].veinsmobility zOrientation 0
par myHospitalNetwork.node[4].veinsmobility hostPositionOffset 0m
attr unit m
par myHospitalNetwork.node[4].veinsmobility setHostSpeed false
par myHospitalNetwork.node[4].veinsmobility accidentCount 0
par myHospitalNetwork.node[4].veinsmobility accidentStart 43.28s
attr unit s
par myHospitalNetwork.node[4].veinsmobility accidentDuration "uniform(30s, 60s)"
attr unit s
par myHospitalNetwork.node[4].veinsmobility accidentInterval "uniform(30s, 60s)"
attr unit s
scalar myHospitalNetwork.node[4].veinsmobility startTime 8.1
scalar myHospitalNetwork.node[4].veinsmobility totalTime 177.9
scalar myHospitalNetwork.node[4].veinsmobility stopTime 186.1
scalar myHospitalNetwork.node[4].veinsmobility minSpeed 1.9
scalar myHospitalNetwork.node[4].veinsmobility maxSpeed 4.4679467132371
scalar myHospitalNetwork.node[4].veinsmobility totalDistance 794.0201173752
scalar myHospitalNetwork.node[4].veinsmobility totalCO2Emission 239.3840423104
par myHospitalNetwork.node[4] typename "\"org.car2x.veins.nodes.Car\""
par myHospitalNetwork.node[4] applType "\"AGVControlApp\""
par myHospitalNetwork.node[4] nicType "\"Nic80211p\""
par myHospitalNetwork.node[4] veinsmobilityType "\"org.car2x.veins.modules.mobility.traci.TraCIMobility\""
par myHospitalNetwork.node[6].appl typename "\"gr2.veins_inet.AGVControlApp\""
par myHospitalNetwork.node[6].appl headerLength 80bit
attr unit bit
par myHospitalNetwork.node[6].appl sendBeacons false
par myHospitalNetwork.node[6].appl beaconLengthBits 256bit
attr unit bit
par myHospitalNetwork.node[6].appl beaconUserPriority 7
par myHospitalNetwork.node[6].appl beaconInterval 0.1s
attr unit s
par myHospitalNetwork.node[6].appl dataLengthBits 1024bit
attr unit bit
par myHospitalNetwork.node[6].appl dataOnSch true
par myHospitalNetwork.node[6].appl dataUserPriority 7
par myHospitalNetwork.node[6].appl avoidBeaconSynchronization true
par myHospitalNetwork.node[6].appl sendWSA false
par myHospitalNetwork.node[6].appl wsaLengthBits 250bit
attr unit bit
par myHospitalNetwork.node[6].appl wsaInterval 1s
attr unit s
par myHospitalNetwork.node[6].appl appName "\"My first Veins App!\""
scalar myHospitalNetwork.node[6].appl generatedWSMs 0
scalar myHospitalNetwork.node[6].appl receivedWSMs 0
scalar myHospitalNetwork.node[6].appl generatedBSMs 1873
scalar myHospitalNetwork.node[6].appl receivedBSMs 0
scalar myHospitalNetwork.node[6].appl generatedWSAs 0
scalar myHospitalNetwork.node[6].appl receivedWSAs 0
par myHospitalNetwork.node[6].nic.phy80211p typename "\"org.car2x.veins.modules.phy.PhyLayer80211p\""
par myHospitalNetwork.node[6].nic.phy80211p recordStats false
par myHospitalNetwork.node[6].nic.phy80211p usePropagationDelay true
par myHospitalNetwork.node[6].nic.phy80211p noiseFloor -98dBm
attr unit dBm
par myHospitalNetwork.node[6].nic.phy80211p useNoiseFloor true
par myHospitalNetwork.node[6].nic.phy80211p antenna "<Antenna type=\"SampledAntenna1D\" id=\"monopole\">...</Antenna> at /home/duong/Desktop/omnetpp-6.0.1/workspace/Gr2/simulations/hh//antenna.xml:35"
par myHospitalNetwork.node[6].nic.phy80211p antennaOffsetX 0m
attr unit m
par myHospitalNetwork.node[6].nic.phy80211p antennaOffsetY 0m
attr unit m
par myHospitalNetwork.node[6].nic.phy80211p antennaOffsetZ 1.895m
attr unit m
par myHospitalNetwork.node[6].nic.phy80211p antennaOffsetYaw 0rad
attr unit rad
par myHospitalNetwork.node[6].nic.phy80211p analogueModels "<root>...</root> at /home/duong/Desktop/omnetpp-6.0.1/workspace/Gr2/simulations/hh//config.xml:34"
par myHospitalNetwork.node[6].nic.phy80211p decider "<root>...</root> at /home/duong/Desktop/omnetpp-6.0.1/workspace/Gr2/simulations/hh//config.xml:34"
par myHospitalNetwork.node[6].nic.phy80211p minPowerLevel -110dBm
attr unit dBm
par myHospitalNetwork.node[6].nic.phy80211p timeRXToTX 0s
attr unit s
par myHospitalNetwork.node[6].nic.phy80211p timeRXToSleep 0s
attr unit s
par myHospitalNetwork.node[6].nic.phy80211p timeTXToRX 0s
attr unit s
par myHospitalNetwork.node[6].nic.phy80211p timeTXToSleep 0s
attr unit s
par myHospitalNetwork.node[6].nic.phy80211p timeSleepToRX 0s
attr unit s
par myHospitalNetwork.node[6].nic.phy80211p timeSleepToTX 0s
attr unit s
par myHospitalNetwork.node[6].nic.phy80211p initialRadioState 0
par myHospitalNetwork.node[6].nic.phy80211p radioMinAtt 1
par myHospitalNetwork.node[6].nic.phy80211p radioMaxAtt 0
par myHospitalNetwork.node[6].nic.phy80211p nbRadioChannels 1
par myHospitalNetwork.node[6].nic.phy80211p initialRadioChannel 0
par myHospitalNetwork.node[6].nic.phy80211p ccaThreshold -65dBm
attr unit dBm
par myHospitalNetwork.node[6].nic.phy80211p collectCollisionStatistics false
par myHospitalNetwork.node[6].nic.phy80211p allowTxDuringRx false
scalar myHospitalNetwork.node[6].nic.phy80211p busyTime 0.032234618259469
par myHospitalNetwork.node[6].nic.mac1609_4 typename "\"org.car2x.veins.modules.mac.ieee80211p.Mac1609_4\""
par myHospitalNetwork.node[6].nic.mac1609_4 notAffectedByHostState false
par myHospitalNetwork.node[6].nic.mac1609_4 headerLength 0bit
attr unit bit
par myHospitalNetwork.node[6].nic.mac1609_4 address "\"auto\""
par myHospitalNetwork.node[6].nic.mac1609_4 useServiceChannel true
par myHospitalNetwork.node[6].nic.mac1609_4 serviceChannel 1
par myHospitalNetwork.node[6].nic.mac1609_4 bitrate 6000000bps
attr unit bps
par myHospitalNetwork.node[6].nic.mac1609_4 syncOffset 0.0003s
attr unit s
par myHospitalNetwork.node[6].nic.mac1609_4 txPower 20mW
attr unit mW
par myHospitalNetwork.node[6].nic.mac1609_4 queueSize 0
par myHospitalNetwork.node[6].nic.mac1609_4 dot11RTSThreshold 12000bit
attr unit bit
par myHospitalNetwork.node[6].nic.mac1609_4 dot11ShortRetryLimit 7
par myHospitalNetwork.node[6].nic.mac1609_4 dot11LongRetryLimit 4
par myHospitalNetwork.node[6].nic.mac1609_4 ackLength 112bit
attr unit bit
par myHospitalNetwork.node[6].nic.mac1609_4 useAcks false
par myHospitalNetwork.node[6].nic.mac1609_4 frameErrorRate 0
par myHospitalNetwork.node[6].nic.mac1609_4 ackErrorRate 0
scalar myHospitalNetwork.node[6].nic.mac1609_4 ReceivedUnicastPackets 0
scalar myHospitalNetwork.node[6].nic.mac1609_4 ReceivedBroadcasts 12689
scalar myHospitalNetwork.node[6].nic.mac1609_4 SentPackets 3744
scalar myHospitalNetwork.node[6].nic.mac1609_4 SentAcknowledgements 0
scalar myHospitalNetwork.node[6].nic.mac1609_4 RetriesExceeded 0
scalar myHospitalNetwork.node[6].nic.mac1609_4 SNIRLostPackets 21009
scalar myHospitalNetwork.node[6].nic.mac1609_4 RXTXLostPackets 6138
scalar myHospitalNetwork.node[6].nic.mac1609_4 TotalLostPackets 27147
scalar myHospitalNetwork.node[6].nic.mac1609_4 DroppedPacketsInMac 0
scalar myHospitalNetwork.node[6].nic.mac1609_4 TooLittleTime 1775
scalar myHospitalNetwork.node[6].nic.mac1609_4 TimesIntoBackoff 7906
scalar myHospitalNetwork.node[6].nic.mac1609_4 SlotsBackoff 5468
scalar myHospitalNetwork.node[6].nic.mac1609_4 NumInternalContention 0
scalar myHospitalNetwork.node[6].nic.mac1609_4 totalBusyTime 4.091126353427
scalar myHospitalNetwork.node[6].nic.mac1609_4 retriesExceeded:count 0
attr recordingmode count
attr source org_car2x_veins_modules_mac_sigRetriesExceeded
scalar myHospitalNetwork.node[6].nic.mac1609_4 sentAcks:count 0
attr recordingmode count
attr source org_car2x_veins_modules_mac_sigSentAck
scalar myHospitalNetwork.node[6].nic.mac1609_4 sentPackets:count 3744
attr recordingmode count
attr source org_car2x_veins_modules_mac_sigSentPacket
scalar myHospitalNetwork.node[6].nic.mac1609_4 collisions:count 0
attr recordingmode count
attr source org_car2x_veins_modules_mac_sigCollision
scalar myHospitalNetwork.node[6].nic.mac1609_4 channelBusy:timeavg 0.021842639366935
attr recordingmode timeavg
attr source org_car2x_veins_modules_mac_sigChannelBusy
par myHospitalNetwork.node[6].nic typename "\"org.car2x.veins.modules.nic.Nic80211p\""
par myHospitalNetwork.node[6].nic connectionManagerName "\"connectionManager\""
par myHospitalNetwork.node[6].veinsmobility typename "\"org.car2x.veins.modules.mobility.traci.TraCIMobility\""
par myHospitalNetwork.node[6].veinsmobility notAffectedByHostState true
par myHospitalNetwork.node[6].veinsmobility x 0
par myHospitalNetwork.node[6].veinsmobility y 0
par myHospitalNetwork.node[6].veinsmobility z 0
par myHospitalNetwork.node[6].veinsmobility xOrientation 1
par myHospitalNetwork.node[6].veinsmobility yOrientation 0
par myHospitalNetwork.node[6].veinsmobility zOrientation 0
par myHospitalNetwork.node[6].veinsmobility hostPositionOffset 0m
attr unit m
par myHospitalNetwork.node[6].veinsmobility setHostSpeed false
par myHospitalNetwork.node[6].veinsmobility accidentCount 0
par myHospitalNetwork.node[6].veinsmobility accidentStart 57.3128s
attr unit s
par myHospitalNetwork.node[6].veinsmobility accidentDuration "uniform(30s, 60s)"
attr unit s
par myHospitalNetwork.node[6].veinsmobility accidentInterval "uniform(30s, 60s)"
attr unit s
scalar myHospitalNetwork.node[6].veinsmobility startTime 9.1
scalar myHospitalNetwork.node[6].veinsmobility totalTime 187.2
scalar myHospitalNetwork.node[6].veinsmobility stopTime 196.4
scalar myHospitalNetwork.node[6].veinsmobility minSpeed 0
scalar myHospitalNetwork.node[6].veinsmobility maxSpeed 4.3248588876271
scalar myHospitalNetwork.node[6].veinsmobility totalDistance 799.58932407797
scalar myHospitalNetwork.node[6].veinsmobility totalCO2Emission 254.86493297036
par myHospitalNetwork.node[6] typename "\"org.car2x.veins.nodes.Car\""
par myHospitalNetwork.node[6] applType "\"AGVControlApp\""
par myHospitalNetwork.node[6] nicType "\"Nic80211p\""
par myHospitalNetwork.node[6] veinsmobilityType "\"org.car2x.veins.modules.mobility.traci.TraCIMobility\""
par myHospitalNetwork.node[3].appl typename "\"gr2.veins_inet.AGVControlApp\""
par myHospitalNetwork.node[3].appl headerLength 80bit
attr unit bit
par myHospitalNetwork.node[3].appl sendBeacons false
par myHospitalNetwork.node[3].appl beaconLengthBits 256bit
attr unit bit
par myHospitalNetwork.node[3].appl beaconUserPriority 7
par myHospitalNetwork.node[3].appl beaconInterval 0.1s
attr unit s
par myHospitalNetwork.node[3].appl dataLengthBits 1024bit
attr unit bit
par myHospitalNetwork.node[3].appl dataOnSch true
par myHospitalNetwork.node[3].appl dataUserPriority 7
par myHospitalNetwork.node[3].appl avoidBeaconSynchronization true
par myHospitalNetwork.node[3].appl sendWSA false
par myHospitalNetwork.node[3].appl wsaLengthBits 250bit
attr unit bit
par myHospitalNetwork.node[3].appl wsaInterval 1s
attr unit s
par myHospitalNetwork.node[3].appl appName "\"My first Veins App!\""
scalar myHospitalNetwork.node[3].appl generatedWSMs 0
scalar myHospitalNetwork.node[3].appl receivedWSMs 0
scalar myHospitalNetwork.node[3].appl generatedBSMs 1990
scalar myHospitalNetwork.node[3].appl receivedBSMs 0
scalar myHospitalNetwork.node[3].appl generatedWSAs 0
scalar myHospitalNetwork.node[3].appl receivedWSAs 0
par myHospitalNetwork.node[3].nic.phy80211p typename "\"org.car2x.veins.modules.phy.PhyLayer80211p\""
par myHospitalNetwork.node[3].nic.phy80211p recordStats false
par myHospitalNetwork.node[3].nic.phy80211p usePropagationDelay true
par myHospitalNetwork.node[3].nic.phy80211p noiseFloor -98dBm
attr unit dBm
par myHospitalNetwork.node[3].nic.phy80211p useNoiseFloor true
par myHospitalNetwork.node[3].nic.phy80211p antenna "<Antenna type=\"SampledAntenna1D\" id=\"monopole\">...</Antenna> at /home/duong/Desktop/omnetpp-6.0.1/workspace/Gr2/simulations/hh//antenna.xml:35"
par myHospitalNetwork.node[3].nic.phy80211p antennaOffsetX 0m
attr unit m
par myHospitalNetwork.node[3].nic.phy80211p antennaOffsetY 0m
attr unit m
par myHospitalNetwork.node[3].nic.phy80211p antennaOffsetZ 1.895m
attr unit m
par myHospitalNetwork.node[3].nic.phy80211p antennaOffsetYaw 0rad
attr unit rad
par myHospitalNetwork.node[3].nic.phy80211p analogueModels "<root>...</root> at /home/duong/Desktop/omnetpp-6.0.1/workspace/Gr2/simulations/hh//config.xml:34"
par myHospitalNetwork.node[3].nic.phy80211p decider "<root>...</root> at /home/duong/Desktop/omnetpp-6.0.1/workspace/Gr2/simulations/hh//config.xml:34"
par myHospitalNetwork.node[3].nic.phy80211p minPowerLevel -110dBm
attr unit dBm
par myHospitalNetwork.node[3].nic.phy80211p timeRXToTX 0s
attr unit s
par myHospitalNetwork.node[3].nic.phy80211p timeRXToSleep 0s
attr unit s
par myHospitalNetwork.node[3].nic.phy80211p timeTXToRX 0s
attr unit s
par myHospitalNetwork.node[3].nic.phy80211p timeTXToSleep 0s
attr unit s
par myHospitalNetwork.node[3].nic.phy80211p timeSleepToRX 0s
attr unit s
par myHospitalNetwork.node[3].nic.phy80211p timeSleepToTX 0s
attr unit s
par myHospitalNetwork.node[3].nic.phy80211p initialRadioState 0
par myHospitalNetwork.node[3].nic.phy80211p radioMinAtt 1
par myHospitalNetwork.node[3].nic.phy80211p radioMaxAtt 0
par myHospitalNetwork.node[3].nic.phy80211p nbRadioChannels 1
par myHospitalNetwork.node[3].nic.phy80211p initialRadioChannel 0
par myHospitalNetwork.node[3].nic.phy80211p ccaThreshold -65dBm
attr unit dBm
par myHospitalNetwork.node[3].nic.phy80211p collectCollisionStatistics false
par myHospitalNetwork.node[3].nic.phy80211p allowTxDuringRx false
scalar myHospitalNetwork.node[3].nic.phy80211p busyTime 0.030177246231148
par myHospitalNetwork.node[3].nic.mac1609_4 typename "\"org.car2x.veins.modules.mac.ieee80211p.Mac1609_4\""
par myHospitalNetwork.node[3].nic.mac1609_4 notAffectedByHostState false
par myHospitalNetwork.node[3].nic.mac1609_4 headerLength 0bit
attr unit bit
par myHospitalNetwork.node[3].nic.mac1609_4 address "\"auto\""
par myHospitalNetwork.node[3].nic.mac1609_4 useServiceChannel true
par myHospitalNetwork.node[3].nic.mac1609_4 serviceChannel 1
par myHospitalNetwork.node[3].nic.mac1609_4 bitrate 6000000bps
attr unit bps
par myHospitalNetwork.node[3].nic.mac1609_4 syncOffset 0.0003s
attr unit s
par myHospitalNetwork.node[3].nic.mac1609_4 txPower 20mW
attr unit mW
par myHospitalNetwork.node[3].nic.mac1609_4 queueSize 0
par myHospitalNetwork.node[3].nic.mac1609_4 dot11RTSThreshold 12000bit
attr unit bit
par myHospitalNetwork.node[3].nic.mac1609_4 dot11ShortRetryLimit 7
par myHospitalNetwork.node[3].nic.mac1609_4 dot11LongRetryLimit 4
par myHospitalNetwork.node[3].nic.mac1609_4 ackLength 112bit
attr unit bit
par myHospitalNetwork.node[3].nic.mac1609_4 useAcks false
par myHospitalNetwork.node[3].nic.mac1609_4 frameErrorRate 0
par myHospitalNetwork.node[3].nic.mac1609_4 ackErrorRate 0
scalar myHospitalNetwork.node[3].nic.mac1609_4 ReceivedUnicastPackets 0
scalar myHospitalNetwork.node[3].nic.mac1609_4 ReceivedBroadcasts 12417
scalar myHospitalNetwork.node[3].nic.mac1609_4 SentPackets 3978
scalar myHospitalNetwork.node[3].nic.mac1609_4 SentAcknowledgements 0
scalar myHospitalNetwork.node[3].nic.mac1609_4 RetriesExceeded 0
scalar myHospitalNetwork.node[3].nic.mac1609_4 SNIRLostPackets 21130
scalar myHospitalNetwork.node[3].nic.mac1609_4 RXTXLostPackets 7648
scalar myHospitalNetwork.node[3].nic.mac1609_4 TotalLostPackets 28778
scalar myHospitalNetwork.node[3].nic.mac1609_4 DroppedPacketsInMac 0
scalar myHospitalNetwork.node[3].nic.mac1609_4 TooLittleTime 1305
scalar myHospitalNetwork.node[3].nic.mac1609_4 TimesIntoBackoff 7721
scalar myHospitalNetwork.node[3].nic.mac1609_4 SlotsBackoff 6079
scalar myHospitalNetwork.node[3].nic.mac1609_4 NumInternalContention 0
scalar myHospitalNetwork.node[3].nic.mac1609_4 totalBusyTime 4.287104575503
scalar myHospitalNetwork.node[3].nic.mac1609_4 retriesExceeded:count 0
attr recordingmode count
attr source org_car2x_veins_modules_mac_sigRetriesExceeded
scalar myHospitalNetwork.node[3].nic.mac1609_4 sentAcks:count 0
attr recordingmode count
attr source org_car2x_veins_modules_mac_sigSentAck
scalar myHospitalNetwork.node[3].nic.mac1609_4 sentPackets:count 3978
attr recordingmode count
attr source org_car2x_veins_modules_mac_sigSentPacket
scalar myHospitalNetwork.node[3].nic.mac1609_4 collisions:count 0
attr recordingmode count
attr source org_car2x_veins_modules_mac_sigCollision
scalar myHospitalNetwork.node[3].nic.mac1609_4 channelBusy:timeavg 0.021543239072878
attr recordingmode timeavg
attr source org_car2x_veins_modules_mac_sigChannelBusy
par myHospitalNetwork.node[3].nic typename "\"org.car2x.veins.modules.nic.Nic80211p\""
par myHospitalNetwork.node[3].nic connectionManagerName "\"connectionManager\""
par myHospitalNetwork.node[3].veinsmobility typename "\"org.car2x.veins.modules.mobility.traci.TraCIMobility\""
par myHospitalNetwork.node[3].veinsmobility notAffectedByHostState true
par myHospitalNetwork.node[3].veinsmobility x 0
par myHospitalNetwork.node[3].veinsmobility y 0
par myHospitalNetwork.node[3].veinsmobility z 0
par myHospitalNetwork.node[3].veinsmobility xOrientation 1
par myHospitalNetwork.node[3].veinsmobility yOrientation 0
par myHospitalNetwork.node[3].veinsmobility zOrientation 0
par myHospitalNetwork.node[3].veinsmobility hostPositionOffset 0m
attr unit m
par myHospitalNetwork.node[3].veinsmobility setHostSpeed false
par myHospitalNetwork.node[3].veinsmobility accidentCount 0
par myHospitalNetwork.node[3].veinsmobility accidentStart 35.1296s
attr unit s
par myHospitalNetwork.node[3].veinsmobility accidentDuration "uniform(30s, 60s)"
attr unit s
par myHospitalNetwork.node[3].veinsmobility accidentInterval "uniform(30s, 60s)"
attr unit s
scalar myHospitalNetwork.node[3].veinsmobility startTime 2.1
scalar myHospitalNetwork.node[3].veinsmobility totalTime 198.9
scalar myHospitalNetwork.node[3].veinsmobility stopTime 201.1
scalar myHospitalNetwork.node[3].veinsmobility minSpeed 0
scalar myHospitalNetwork.node[3].veinsmobility maxSpeed 3.7541874046292
scalar myHospitalNetwork.node[3].veinsmobility totalDistance 744.16916218919
scalar myHospitalNetwork.node[3].veinsmobility totalCO2Emission 261.01818166346
par myHospitalNetwork.node[3] typename "\"org.car2x.veins.nodes.Car\""
par myHospitalNetwork.node[3] applType "\"AGVControlApp\""
par myHospitalNetwork.node[3] nicType "\"Nic80211p\""
par myHospitalNetwork.node[3] veinsmobilityType "\"org.car2x.veins.modules.mobility.traci.TraCIMobility\""
par myHospitalNetwork.node[5].appl typename "\"gr2.veins_inet.AGVControlApp\""
par myHospitalNetwork.node[5].appl headerLength 80bit
attr unit bit
par myHospitalNetwork.node[5].appl sendBeacons false
par myHospitalNetwork.node[5].appl beaconLengthBits 256bit
attr unit bit
par myHospitalNetwork.node[5].appl beaconUserPriority 7
par myHospitalNetwork.node[5].appl beaconInterval 0.1s
attr unit s
par myHospitalNetwork.node[5].appl dataLengthBits 1024bit
attr unit bit
par myHospitalNetwork.node[5].appl dataOnSch true
par myHospitalNetwork.node[5].appl dataUserPriority 7
par myHospitalNetwork.node[5].appl avoidBeaconSynchronization true
par myHospitalNetwork.node[5].appl sendWSA false
par myHospitalNetwork.node[5].appl wsaLengthBits 250bit
attr unit bit
par myHospitalNetwork.node[5].appl wsaInterval 1s
attr unit s
par myHospitalNetwork.node[5].appl appName "\"My first Veins App!\""
scalar myHospitalNetwork.node[5].appl generatedWSMs 0
scalar myHospitalNetwork.node[5].appl receivedWSMs 0
scalar myHospitalNetwork.node[5].appl generatedBSMs 2204
scalar myHospitalNetwork.node[5].appl receivedBSMs 0
scalar myHospitalNetwork.node[5].appl generatedWSAs 0
scalar myHospitalNetwork.node[5].appl receivedWSAs 0
par myHospitalNetwork.node[5].nic.phy80211p typename "\"org.car2x.veins.modules.phy.PhyLayer80211p\""
par myHospitalNetwork.node[5].nic.phy80211p recordStats false
par myHospitalNetwork.node[5].nic.phy80211p usePropagationDelay true
par myHospitalNetwork.node[5].nic.phy80211p noiseFloor -98dBm
attr unit dBm
par myHospitalNetwork.node[5].nic.phy80211p useNoiseFloor true
par myHospitalNetwork.node[5].nic.phy80211p antenna "<Antenna type=\"SampledAntenna1D\" id=\"monopole\">...</Antenna> at /home/duong/Desktop/omnetpp-6.0.1/workspace/Gr2/simulations/hh//antenna.xml:35"
par myHospitalNetwork.node[5].nic.phy80211p antennaOffsetX 0m
attr unit m
par myHospitalNetwork.node[5].nic.phy80211p antennaOffsetY 0m
attr unit m
par myHospitalNetwork.node[5].nic.phy80211p antennaOffsetZ 1.895m
attr unit m
par myHospitalNetwork.node[5].nic.phy80211p antennaOffsetYaw 0rad
attr unit rad
par myHospitalNetwork.node[5].nic.phy80211p analogueModels "<root>...</root> at /home/duong/Desktop/omnetpp-6.0.1/workspace/Gr2/simulations/hh//config.xml:34"
par myHospitalNetwork.node[5].nic.phy80211p decider "<root>...</root> at /home/duong/Desktop/omnetpp-6.0.1/workspace/Gr2/simulations/hh//config.xml:34"
par myHospitalNetwork.node[5].nic.phy80211p minPowerLevel -110dBm
attr unit dBm
par myHospitalNetwork.node[5].nic.phy80211p timeRXToTX 0s
attr unit s
par myHospitalNetwork.node[5].nic.phy80211p timeRXToSleep 0s
attr unit s
par myHospitalNetwork.node[5].nic.phy80211p timeTXToRX 0s
attr unit s
par myHospitalNetwork.node[5].nic.phy80211p timeTXToSleep 0s
attr unit s
par myHospitalNetwork.node[5].nic.phy80211p timeSleepToRX 0s
attr unit s
par myHospitalNetwork.node[5].nic.phy80211p timeSleepToTX 0s
attr unit s
par myHospitalNetwork.node[5].nic.phy80211p initialRadioState 0
par myHospitalNetwork.node[5].nic.phy80211p radioMinAtt 1
par myHospitalNetwork.node[5].nic.phy80211p radioMaxAtt 0
par myHospitalNetwork.node[5].nic.phy80211p nbRadioChannels 1
par myHospitalNetwork.node[5].nic.phy80211p initialRadioChannel 0
par myHospitalNetwork.node[5].nic.phy80211p ccaThreshold -65dBm
attr unit dBm
par myHospitalNetwork.node[5].nic.phy80211p collectCollisionStatistics false
par myHospitalNetwork.node[5].nic.phy80211p allowTxDuringRx false
scalar myHospitalNetwork.node[5].nic.phy80211p busyTime 0.029430127041734
par myHospitalNetwork.node[5].nic.mac1609_4 typename "\"org.car2x.veins.modules.mac.ieee80211p.Mac1609_4\""
par myHospitalNetwork.node[5].nic.mac1609_4 notAffectedByHostState false
par myHospitalNetwork.node[5].nic.mac1609_4 headerLength 0bit
attr unit bit
par myHospitalNetwork.node[5].nic.mac1609_4 address "\"auto\""
par myHospitalNetwork.node[5].nic.mac1609_4 useServiceChannel true
par myHospitalNetwork.node[5].nic.mac1609_4 serviceChannel 1
par myHospitalNetwork.node[5].nic.mac1609_4 bitrate 6000000bps
attr unit bps
par myHospitalNetwork.node[5].nic.mac1609_4 syncOffset 0.0003s
attr unit s
par myHospitalNetwork.node[5].nic.mac1609_4 txPower 20mW
attr unit mW
par myHospitalNetwork.node[5].nic.mac1609_4 queueSize 0
par myHospitalNetwork.node[5].nic.mac1609_4 dot11RTSThreshold 12000bit
attr unit bit
par myHospitalNetwork.node[5].nic.mac1609_4 dot11ShortRetryLimit 7
par myHospitalNetwork.node[5].nic.mac1609_4 dot11LongRetryLimit 4
par myHospitalNetwork.node[5].nic.mac1609_4 ackLength 112bit
attr unit bit
par myHospitalNetwork.node[5].nic.mac1609_4 useAcks false
par myHospitalNetwork.node[5].nic.mac1609_4 frameErrorRate 0
par myHospitalNetwork.node[5].nic.mac1609_4 ackErrorRate 0
scalar myHospitalNetwork.node[5].nic.mac1609_4 ReceivedUnicastPackets 0
scalar myHospitalNetwork.node[5].nic.mac1609_4 ReceivedBroadcasts 13996
scalar myHospitalNetwork.node[5].nic.mac1609_4 SentPackets 4406
scalar myHospitalNetwork.node[5].nic.mac1609_4 SentAcknowledgements 0
scalar myHospitalNetwork.node[5].nic.mac1609_4 RetriesExceeded 0
scalar myHospitalNetwork.node[5].nic.mac1609_4 SNIRLostPackets 22333
scalar myHospitalNetwork.node[5].nic.mac1609_4 RXTXLostPackets 8500
scalar myHospitalNetwork.node[5].nic.mac1609_4 TotalLostPackets 30833
scalar myHospitalNetwork.node[5].nic.mac1609_4 DroppedPacketsInMac 0
scalar myHospitalNetwork.node[5].nic.mac1609_4 TooLittleTime 275
scalar myHospitalNetwork.node[5].nic.mac1609_4 TimesIntoBackoff 7410
scalar myHospitalNetwork.node[5].nic.mac1609_4 SlotsBackoff 6598
scalar myHospitalNetwork.node[5].nic.mac1609_4 NumInternalContention 0
scalar myHospitalNetwork.node[5].nic.mac1609_4 totalBusyTime 4.801241228846
scalar myHospitalNetwork.node[5].nic.mac1609_4 retriesExceeded:count 0
attr recordingmode count
attr source org_car2x_veins_modules_mac_sigRetriesExceeded
scalar myHospitalNetwork.node[5].nic.mac1609_4 sentAcks:count 0
attr recordingmode count
attr source org_car2x_veins_modules_mac_sigSentAck
scalar myHospitalNetwork.node[5].nic.mac1609_4 sentPackets:count 4406
attr recordingmode count
attr source org_car2x_veins_modules_mac_sigSentPacket
scalar myHospitalNetwork.node[5].nic.mac1609_4 collisions:count 0
attr recordingmode count
attr source org_car2x_veins_modules_mac_sigCollision
scalar myHospitalNetwork.node[5].nic.mac1609_4 channelBusy:timeavg 0.021784216101838
attr recordingmode timeavg
attr source org_car2x_veins_modules_mac_sigChannelBusy
par myHospitalNetwork.node[5].nic typename "\"org.car2x.veins.modules.nic.Nic80211p\""
par myHospitalNetwork.node[5].nic connectionManagerName "\"connectionManager\""
par myHospitalNetwork.node[5].veinsmobility typename "\"org.car2x.veins.modules.mobility.traci.TraCIMobility\""
par myHospitalNetwork.node[5].veinsmobility notAffectedByHostState true
par myHospitalNetwork.node[5].veinsmobility x 0
par myHospitalNetwork.node[5].veinsmobility y 0
par myHospitalNetwork.node[5].veinsmobility z 0
par myHospitalNetwork.node[5].veinsmobility xOrientation 1
par myHospitalNetwork.node[5].veinsmobility yOrientation 0
par myHospitalNetwork.node[5].veinsmobility zOrientation 0
par myHospitalNetwork.node[5].veinsmobility hostPositionOffset 0m
attr unit m
par myHospitalNetwork.node[5].veinsmobility setHostSpeed false
par myHospitalNetwork.node[5].veinsmobility accidentCount 0
par myHospitalNetwork.node[5].veinsmobility accidentStart 43.8828s
attr unit s
par myHospitalNetwork.node[5].veinsmobility accidentDuration "uniform(30s, 60s)"
attr unit s
par myHospitalNetwork.node[5].veinsmobility accidentInterval "uniform(30s, 60s)"
attr unit s
scalar myHospitalNetwork.node[5].veinsmobility startTime 8.1
scalar myHospitalNetwork.node[5].veinsmobility totalTime 220.3
scalar myHospitalNetwork.node[5].veinsmobility stopTime 228.5
scalar myHospitalNetwork.node[5].veinsmobility minSpeed 0
scalar myHospitalNetwork.node[5].veinsmobility maxSpeed 3.327498384442
scalar myHospitalNetwork.node[5].veinsmobility totalDistance 724.63204724707
scalar myHospitalNetwork.node[5].veinsmobility totalCO2Emission 284.15415154158
par myHospitalNetwork.node[5] typename "\"org.car2x.veins.nodes.Car\""
par myHospitalNetwork.node[5] applType "\"AGVControlApp\""
par myHospitalNetwork.node[5] nicType "\"Nic80211p\""
par myHospitalNetwork.node[5] veinsmobilityType "\"org.car2x.veins.modules.mobility.traci.TraCIMobility\""
par myHospitalNetwork.node[8].appl typename "\"gr2.veins_inet.AGVControlApp\""
par myHospitalNetwork.node[8].appl headerLength 80bit
attr unit bit
par myHospitalNetwork.node[8].appl sendBeacons false
par myHospitalNetwork.node[8].appl beaconLengthBits 256bit
attr unit bit
par myHospitalNetwork.node[8].appl beaconUserPriority 7
par myHospitalNetwork.node[8].appl beaconInterval 0.1s
attr unit s
par myHospitalNetwork.node[8].appl dataLengthBits 1024bit
attr unit bit
par myHospitalNetwork.node[8].appl dataOnSch true
par myHospitalNetwork.node[8].appl dataUserPriority 7
par myHospitalNetwork.node[8].appl avoidBeaconSynchronization true
par myHospitalNetwork.node[8].appl sendWSA false
par myHospitalNetwork.node[8].appl wsaLengthBits 250bit
attr unit bit
par myHospitalNetwork.node[8].appl wsaInterval 1s
attr unit s
par myHospitalNetwork.node[8].appl appName "\"My first Veins App!\""
scalar myHospitalNetwork.node[8].appl generatedWSMs 0
scalar myHospitalNetwork.node[8].appl receivedWSMs 0
scalar myHospitalNetwork.node[8].appl generatedBSMs 2000
scalar myHospitalNetwork.node[8].appl receivedBSMs 0
scalar myHospitalNetwork.node[8].appl generatedWSAs 0
scalar myHospitalNetwork.node[8].appl receivedWSAs 0
par myHospitalNetwork.node[8].nic.phy80211p typename "\"org.car2x.veins.modules.phy.PhyLayer80211p\""
par myHospitalNetwork.node[8].nic.phy80211p recordStats false
par myHospitalNetwork.node[8].nic.phy80211p usePropagationDelay true
par myHospitalNetwork.node[8].nic.phy80211p noiseFloor -98dBm
attr unit dBm
par myHospitalNetwork.node[8].nic.phy80211p useNoiseFloor true
par myHospitalNetwork.node[8].nic.phy80211p antenna "<Antenna type=\"SampledAntenna1D\" id=\"monopole\">...</Antenna> at /home/duong/Desktop/omnetpp-6.0.1/workspace/Gr2/simulations/hh//antenna.xml:35"
par myHospitalNetwork.node[8].nic.phy80211p antennaOffsetX 0m
attr unit m
par myHospitalNetwork.node[8].nic.phy80211p antennaOffsetY 0m
attr unit m
par myHospitalNetwork.node[8].nic.phy80211p antennaOffsetZ 1.895m
attr unit m
par myHospitalNetwork.node[8].nic.phy80211p antennaOffsetYaw 0rad
attr unit rad
par myHospitalNetwork.node[8].nic.phy80211p analogueModels "<root>...</root> at /home/duong/Desktop/omnetpp-6.0.1/workspace/Gr2/simulations/hh//config.xml:34"
par myHospitalNetwork.node[8].nic.phy80211p decider "<root>...</root> at /home/duong/Desktop/omnetpp-6.0.1/workspace/Gr2/simulations/hh//config.xml:34"
par myHospitalNetwork.node[8].nic.phy80211p minPowerLevel -110dBm
attr unit dBm
par myHospitalNetwork.node[8].nic.phy80211p timeRXToTX 0s
attr unit s
par myHospitalNetwork.node[8].nic.phy80211p timeRXToSleep 0s
attr unit s
par myHospitalNetwork.node[8].nic.phy80211p timeTXToRX 0s
attr unit s
par myHospitalNetwork.node[8].nic.phy80211p timeTXToSleep 0s
attr unit s
par myHospitalNetwork.node[8].nic.phy80211p timeSleepToRX 0s
attr unit s
par myHospitalNetwork.node[8].nic.phy80211p timeSleepToTX 0s
attr unit s
par myHospitalNetwork.node[8].nic.phy80211p initialRadioState 0
par myHospitalNetwork.node[8].nic.phy80211p radioMinAtt 1
par myHospitalNetwork.node[8].nic.phy80211p radioMaxAtt 0
par myHospitalNetwork.node[8].nic.phy80211p nbRadioChannels 1
par myHospitalNetwork.node[8].nic.phy80211p initialRadioChannel 0
par myHospitalNetwork.node[8].nic.phy80211p ccaThreshold -65dBm
attr unit dBm
par myHospitalNetwork.node[8].nic.phy80211p collectCollisionStatistics false
par myHospitalNetwork.node[8].nic.phy80211p allowTxDuringRx false
scalar myHospitalNetwork.node[8].nic.phy80211p busyTime 0.036684159999988
par myHospitalNetwork.node[8].nic.mac1609_4 typename "\"org.car2x.veins.modules.mac.ieee80211p.Mac1609_4\""
par myHospitalNetwork.node[8].nic.mac1609_4 notAffectedByHostState false
par myHospitalNetwork.node[8].nic.mac1609_4 headerLength 0bit
attr unit bit
par myHospitalNetwork.node[8].nic.mac1609_4 address "\"auto\""
par myHospitalNetwork.node[8].nic.mac1609_4 useServiceChannel true
par myHospitalNetwork.node[8].nic.mac1609_4 serviceChannel 1
par myHospitalNetwork.node[8].nic.mac1609_4 bitrate 6000000bps
attr unit bps
par myHospitalNetwork.node[8].nic.mac1609_4 syncOffset 0.0003s
attr unit s
par myHospitalNetwork.node[8].nic.mac1609_4 txPower 20mW
attr unit mW
par myHospitalNetwork.node[8].nic.mac1609_4 queueSize 0
par myHospitalNetwork.node[8].nic.mac1609_4 dot11RTSThreshold 12000bit
attr unit bit
par myHospitalNetwork.node[8].nic.mac1609_4 dot11ShortRetryLimit 7
par myHospitalNetwork.node[8].nic.mac1609_4 dot11LongRetryLimit 4
par myHospitalNetwork.node[8].nic.mac1609_4 ackLength 112bit
attr unit bit
par myHospitalNetwork.node[8].nic.mac1609_4 useAcks false
par myHospitalNetwork.node[8].nic.mac1609_4 frameErrorRate 0
par myHospitalNetwork.node[8].nic.mac1609_4 ackErrorRate 0
scalar myHospitalNetwork.node[8].nic.mac1609_4 ReceivedUnicastPackets 0
scalar myHospitalNetwork.node[8].nic.mac1609_4 ReceivedBroadcasts 11404
scalar myHospitalNetwork.node[8].nic.mac1609_4 SentPackets 3998
scalar myHospitalNetwork.node[8].nic.mac1609_4 SentAcknowledgements 0
scalar myHospitalNetwork.node[8].nic.mac1609_4 RetriesExceeded 0
scalar myHospitalNetwork.node[8].nic.mac1609_4 SNIRLostPackets 30036
scalar myHospitalNetwork.node[8].nic.mac1609_4 RXTXLostPackets 198
scalar myHospitalNetwork.node[8].nic.mac1609_4 TotalLostPackets 30234
scalar myHospitalNetwork.node[8].nic.mac1609_4 DroppedPacketsInMac 0
scalar myHospitalNetwork.node[8].nic.mac1609_4 TooLittleTime 3818
scalar myHospitalNetwork.node[8].nic.mac1609_4 TimesIntoBackoff 7996
scalar myHospitalNetwork.node[8].nic.mac1609_4 SlotsBackoff 5967
scalar myHospitalNetwork.node[8].nic.mac1609_4 NumInternalContention 0
scalar myHospitalNetwork.node[8].nic.mac1609_4 totalBusyTime 4.023585902405
scalar myHospitalNetwork.node[8].nic.mac1609_4 retriesExceeded:count 0
attr recordingmode count
attr source org_car2x_veins_modules_mac_sigRetriesExceeded
scalar myHospitalNetwork.node[8].nic.mac1609_4 sentAcks:count 0
attr recordingmode count
attr source org_car2x_veins_modules_mac_sigSentAck
scalar myHospitalNetwork.node[8].nic.mac1609_4 sentPackets:count 3998
attr recordingmode count
attr source org_car2x_veins_modules_mac_sigSentPacket
scalar myHospitalNetwork.node[8].nic.mac1609_4 collisions:count 0
attr recordingmode count
attr source org_car2x_veins_modules_mac_sigCollision
scalar myHospitalNetwork.node[8].nic.mac1609_4 channelBusy:timeavg 0.020117929512025
attr recordingmode timeavg
attr source org_car2x_veins_modules_mac_sigChannelBusy
par myHospitalNetwork.node[8].nic typename "\"org.car2x.veins.modules.nic.Nic80211p\""
par myHospitalNetwork.node[8].nic connectionManagerName "\"connectionManager\""
par myHospitalNetwork.node[8].veinsmobility typename "\"org.car2x.veins.modules.mobility.traci.TraCIMobility\""
par myHospitalNetwork.node[8].veinsmobility notAffectedByHostState true
par myHospitalNetwork.node[8].veinsmobility x 0
par myHospitalNetwork.node[8].veinsmobility y 0
par myHospitalNetwork.node[8].veinsmobility z 0
par myHospitalNetwork.node[8].veinsmobility xOrientation 1
par myHospitalNetwork.node[8].veinsmobility yOrientation 0
par myHospitalNetwork.node[8].veinsmobility zOrientation 0
par myHospitalNetwork.node[8].veinsmobility hostPositionOffset 0m
attr unit m
par myHospitalNetwork.node[8].veinsmobility setHostSpeed false
par myHospitalNetwork.node[8].veinsmobility accidentCount 0
par myHospitalNetwork.node[8].veinsmobility accidentStart 57.6593s
attr unit s
par myHospitalNetwork.node[8].veinsmobility accidentDuration "uniform(30s, 60s)"
attr unit s
par myHospitalNetwork.node[8].veinsmobility accidentInterval "uniform(30s, 60s)"
attr unit s
scalar myHospitalNetwork.node[8].veinsmobility startTime 38.1
scalar myHospitalNetwork.node[8].veinsmobility totalTime 199.9
scalar myHospitalNetwork.node[8].veinsmobility stopTime 238.1
scalar myHospitalNetwork.node[8].veinsmobility minSpeed 0
scalar myHospitalNetwork.node[8].veinsmobility maxSpeed 4.0875369722673
scalar myHospitalNetwork.node[8].veinsmobility totalDistance 794.11425847743
scalar myHospitalNetwork.node[8].veinsmobility totalCO2Emission 266.30816557535
par myHospitalNetwork.node[8] typename "\"org.car2x.veins.nodes.Car\""
par myHospitalNetwork.node[8] applType "\"AGVControlApp\""
par myHospitalNetwork.node[8] nicType "\"Nic80211p\""
par myHospitalNetwork.node[8] veinsmobilityType "\"org.car2x.veins.modules.mobility.traci.TraCIMobility\""
par myHospitalNetwork.node[1].appl typename "\"gr2.veins_inet.AGVControlApp\""
par myHospitalNetwork.node[1].appl headerLength 80bit
attr unit bit
par myHospitalNetwork.node[1].appl sendBeacons false
par myHospitalNetwork.node[1].appl beaconLengthBits 256bit
attr unit bit
par myHospitalNetwork.node[1].appl beaconUserPriority 7
par myHospitalNetwork.node[1].appl beaconInterval 0.1s
attr unit s
par myHospitalNetwork.node[1].appl dataLengthBits 1024bit
attr unit bit
par myHospitalNetwork.node[1].appl dataOnSch true
par myHospitalNetwork.node[1].appl dataUserPriority 7
par myHospitalNetwork.node[1].appl avoidBeaconSynchronization true
par myHospitalNetwork.node[1].appl sendWSA false
par myHospitalNetwork.node[1].appl wsaLengthBits 250bit
attr unit bit
par myHospitalNetwork.node[1].appl wsaInterval 1s
attr unit s
par myHospitalNetwork.node[1].appl appName "\"My first Veins App!\""
scalar myHospitalNetwork.node[1].appl generatedWSMs 0
scalar myHospitalNetwork.node[1].appl receivedWSMs 0
scalar myHospitalNetwork.node[1].appl generatedBSMs 2409
scalar myHospitalNetwork.node[1].appl receivedBSMs 0
scalar myHospitalNetwork.node[1].appl generatedWSAs 0
scalar myHospitalNetwork.node[1].appl receivedWSAs 0
par myHospitalNetwork.node[1].nic.phy80211p typename "\"org.car2x.veins.modules.phy.PhyLayer80211p\""
par myHospitalNetwork.node[1].nic.phy80211p recordStats false
par myHospitalNetwork.node[1].nic.phy80211p usePropagationDelay true
par myHospitalNetwork.node[1].nic.phy80211p noiseFloor -98dBm
attr unit dBm
par myHospitalNetwork.node[1].nic.phy80211p useNoiseFloor true
par myHospitalNetwork.node[1].nic.phy80211p antenna "<Antenna type=\"SampledAntenna1D\" id=\"monopole\">...</Antenna> at /home/duong/Desktop/omnetpp-6.0.1/workspace/Gr2/simulations/hh//antenna.xml:35"
par myHospitalNetwork.node[1].nic.phy80211p antennaOffsetX 0m
attr unit m
par myHospitalNetwork.node[1].nic.phy80211p antennaOffsetY 0m
attr unit m
par myHospitalNetwork.node[1].nic.phy80211p antennaOffsetZ 1.895m
attr unit m
par myHospitalNetwork.node[1].nic.phy80211p antennaOffsetYaw 0rad
attr unit rad
par myHospitalNetwork.node[1].nic.phy80211p analogueModels "<root>...</root> at /home/duong/Desktop/omnetpp-6.0.1/workspace/Gr2/simulations/hh//config.xml:34"
par myHospitalNetwork.node[1].nic.phy80211p decider "<root>...</root> at /home/duong/Desktop/omnetpp-6.0.1/workspace/Gr2/simulations/hh//config.xml:34"
par myHospitalNetwork.node[1].nic.phy80211p minPowerLevel -110dBm
attr unit dBm
par myHospitalNetwork.node[1].nic.phy80211p timeRXToTX 0s
attr unit s
par myHospitalNetwork.node[1].nic.phy80211p timeRXToSleep 0s
attr unit s
par myHospitalNetwork.node[1].nic.phy80211p timeTXToRX 0s
attr unit s
par myHospitalNetwork.node[1].nic.phy80211p timeTXToSleep 0s
attr unit s
par myHospitalNetwork.node[1].nic.phy80211p timeSleepToRX 0s
attr unit s
par myHospitalNetwork.node[1].nic.phy80211p timeSleepToTX 0s
attr unit s
par myHospitalNetwork.node[1].nic.phy80211p initialRadioState 0
par myHospitalNetwork.node[1].nic.phy80211p radioMinAtt 1
par myHospitalNetwork.node[1].nic.phy80211p radioMaxAtt 0
par myHospitalNetwork.node[1].nic.phy80211p nbRadioChannels 1
par myHospitalNetwork.node[1].nic.phy80211p initialRadioChannel 0
par myHospitalNetwork.node[1].nic.phy80211p ccaThreshold -65dBm
attr unit dBm
par myHospitalNetwork.node[1].nic.phy80211p collectCollisionStatistics false
par myHospitalNetwork.node[1].nic.phy80211p allowTxDuringRx false
scalar myHospitalNetwork.node[1].nic.phy80211p busyTime 0.028526824408459
par myHospitalNetwork.node[1].nic.mac1609_4 typename "\"org.car2x.veins.modules.mac.ieee80211p.Mac1609_4\""
par myHospitalNetwork.node[1].nic.mac1609_4 notAffectedByHostState false
par myHospitalNetwork.node[1].nic.mac1609_4 headerLength 0bit
attr unit bit
par myHospitalNetwork.node[1].nic.mac1609_4 address "\"auto\""
par myHospitalNetwork.node[1].nic.mac1609_4 useServiceChannel true
par myHospitalNetwork.node[1].nic.mac1609_4 serviceChannel 1
par myHospitalNetwork.node[1].nic.mac1609_4 bitrate 6000000bps
attr unit bps
par myHospitalNetwork.node[1].nic.mac1609_4 syncOffset 0.0003s
attr unit s
par myHospitalNetwork.node[1].nic.mac1609_4 txPower 20mW
attr unit mW
par myHospitalNetwork.node[1].nic.mac1609_4 queueSize 0
par myHospitalNetwork.node[1].nic.mac1609_4 dot11RTSThreshold 12000bit
attr unit bit
par myHospitalNetwork.node[1].nic.mac1609_4 dot11ShortRetryLimit 7
par myHospitalNetwork.node[1].nic.mac1609_4 dot11LongRetryLimit 4
par myHospitalNetwork.node[1].nic.mac1609_4 ackLength 112bit
attr unit bit
par myHospitalNetwork.node[1].nic.mac1609_4 useAcks false
par myHospitalNetwork.node[1].nic.mac1609_4 frameErrorRate 0
par myHospitalNetwork.node[1].nic.mac1609_4 ackErrorRate 0
scalar myHospitalNetwork.node[1].nic.mac1609_4 ReceivedUnicastPackets 0
scalar myHospitalNetwork.node[1].nic.mac1609_4 ReceivedBroadcasts 14939
scalar myHospitalNetwork.node[1].nic.mac1609_4 SentPackets 4816
scalar myHospitalNetwork.node[1].nic.mac1609_4 SentAcknowledgements 0
scalar myHospitalNetwork.node[1].nic.mac1609_4 RetriesExceeded 0
scalar myHospitalNetwork.node[1].nic.mac1609_4 SNIRLostPackets 23449
scalar myHospitalNetwork.node[1].nic.mac1609_4 RXTXLostPackets 8674
scalar myHospitalNetwork.node[1].nic.mac1609_4 TotalLostPackets 32123
scalar myHospitalNetwork.node[1].nic.mac1609_4 DroppedPacketsInMac 0
scalar myHospitalNetwork.node[1].nic.mac1609_4 TooLittleTime 134
scalar myHospitalNetwork.node[1].nic.mac1609_4 TimesIntoBackoff 7913
scalar myHospitalNetwork.node[1].nic.mac1609_4 SlotsBackoff 7175
scalar myHospitalNetwork.node[1].nic.mac1609_4 NumInternalContention 0
scalar myHospitalNetwork.node[1].nic.mac1609_4 totalBusyTime 5.167664364673
scalar myHospitalNetwork.node[1].nic.mac1609_4 retriesExceeded:count 0
attr recordingmode count
attr source org_car2x_veins_modules_mac_sigRetriesExceeded
scalar myHospitalNetwork.node[1].nic.mac1609_4 sentAcks:count 0
attr recordingmode count
attr source org_car2x_veins_modules_mac_sigSentAck
scalar myHospitalNetwork.node[1].nic.mac1609_4 sentPackets:count 4816
attr recordingmode count
attr source org_car2x_veins_modules_mac_sigSentPacket
scalar myHospitalNetwork.node[1].nic.mac1609_4 collisions:count 0
attr recordingmode count
attr source org_car2x_veins_modules_mac_sigCollision
scalar myHospitalNetwork.node[1].nic.mac1609_4 channelBusy:timeavg 0.021451491758704
attr recordingmode timeavg
attr source org_car2x_veins_modules_mac_sigChannelBusy
par myHospitalNetwork.node[1].nic typename "\"org.car2x.veins.modules.nic.Nic80211p\""
par myHospitalNetwork.node[1].nic connectionManagerName "\"connectionManager\""
par myHospitalNetwork.node[1].veinsmobility typename "\"org.car2x.veins.modules.mobility.traci.TraCIMobility\""
par myHospitalNetwork.node[1].veinsmobility notAffectedByHostState true
par myHospitalNetwork.node[1].veinsmobility x 0
par myHospitalNetwork.node[1].veinsmobility y 0
par myHospitalNetwork.node[1].veinsmobility z 0
par myHospitalNetwork.node[1].veinsmobility xOrientation 1
par myHospitalNetwork.node[1].veinsmobility yOrientation 0
par myHospitalNetwork.node[1].veinsmobility zOrientation 0
par myHospitalNetwork.node[1].veinsmobility hostPositionOffset 0m
attr unit m
par myHospitalNetwork.node[1].veinsmobility setHostSpeed false
par myHospitalNetwork.node[1].veinsmobility accidentCount 0
par myHospitalNetwork.node[1].veinsmobility accidentStart 59.1583s
attr unit s
par myHospitalNetwork.node[1].veinsmobility accidentDuration "uniform(30s, 60s)"
attr unit s
par myHospitalNetwork.node[1].veinsmobility accidentInterval "uniform(30s, 60s)"
attr unit s
scalar myHospitalNetwork.node[1].veinsmobility startTime 1.1
scalar myHospitalNetwork.node[1].veinsmobility totalTime 240.8
scalar myHospitalNetwork.node[1].veinsmobility stopTime 242
scalar myHospitalNetwork.node[1].veinsmobility minSpeed 0
scalar myHospitalNetwork.node[1].veinsmobility maxSpeed 3.1927084677529
scalar myHospitalNetwork.node[1].veinsmobility totalDistance 763.7246417686
scalar myHospitalNetwork.node[1].veinsmobility totalCO2Emission 308.33199514804
par myHospitalNetwork.node[1] typename "\"org.car2x.veins.nodes.Car\""
par myHospitalNetwork.node[1] applType "\"AGVControlApp\""
par myHospitalNetwork.node[1] nicType "\"Nic80211p\""
par myHospitalNetwork.node[1] veinsmobilityType "\"org.car2x.veins.modules.mobility.traci.TraCIMobility\""
par myHospitalNetwork.node[7].appl typename "\"gr2.veins_inet.AGVControlApp\""
par myHospitalNetwork.node[7].appl headerLength 80bit
attr unit bit
par myHospitalNetwork.node[7].appl sendBeacons false
par myHospitalNetwork.node[7].appl beaconLengthBits 256bit
attr unit bit
par myHospitalNetwork.node[7].appl beaconUserPriority 7
par myHospitalNetwork.node[7].appl beaconInterval 0.1s
attr unit s
par myHospitalNetwork.node[7].appl dataLengthBits 1024bit
attr unit bit
par myHospitalNetwork.node[7].appl dataOnSch true
par myHospitalNetwork.node[7].appl dataUserPriority 7
par myHospitalNetwork.node[7].appl avoidBeaconSynchronization true
par myHospitalNetwork.node[7].appl sendWSA false
par myHospitalNetwork.node[7].appl wsaLengthBits 250bit
attr unit bit
par myHospitalNetwork.node[7].appl wsaInterval 1s
attr unit s
par myHospitalNetwork.node[7].appl appName "\"My first Veins App!\""
scalar myHospitalNetwork.node[7].appl generatedWSMs 0
scalar myHospitalNetwork.node[7].appl receivedWSMs 0
scalar myHospitalNetwork.node[7].appl generatedBSMs 2136
scalar myHospitalNetwork.node[7].appl receivedBSMs 0
scalar myHospitalNetwork.node[7].appl generatedWSAs 0
scalar myHospitalNetwork.node[7].appl receivedWSAs 0
par myHospitalNetwork.node[7].nic.phy80211p typename "\"org.car2x.veins.modules.phy.PhyLayer80211p\""
par myHospitalNetwork.node[7].nic.phy80211p recordStats false
par myHospitalNetwork.node[7].nic.phy80211p usePropagationDelay true
par myHospitalNetwork.node[7].nic.phy80211p noiseFloor -98dBm
attr unit dBm
par myHospitalNetwork.node[7].nic.phy80211p useNoiseFloor true
par myHospitalNetwork.node[7].nic.phy80211p antenna "<Antenna type=\"SampledAntenna1D\" id=\"monopole\">...</Antenna> at /home/duong/Desktop/omnetpp-6.0.1/workspace/Gr2/simulations/hh//antenna.xml:35"
par myHospitalNetwork.node[7].nic.phy80211p antennaOffsetX 0m
attr unit m
par myHospitalNetwork.node[7].nic.phy80211p antennaOffsetY 0m
attr unit m
par myHospitalNetwork.node[7].nic.phy80211p antennaOffsetZ 1.895m
attr unit m
par myHospitalNetwork.node[7].nic.phy80211p antennaOffsetYaw 0rad
attr unit rad
par myHospitalNetwork.node[7].nic.phy80211p analogueModels "<root>...</root> at /home/duong/Desktop/omnetpp-6.0.1/workspace/Gr2/simulations/hh//config.xml:34"
par myHospitalNetwork.node[7].nic.phy80211p decider "<root>...</root> at /home/duong/Desktop/omnetpp-6.0.1/workspace/Gr2/simulations/hh//config.xml:34"
par myHospitalNetwork.node[7].nic.phy80211p minPowerLevel -110dBm
attr unit dBm
par myHospitalNetwork.node[7].nic.phy80211p timeRXToTX 0s
attr unit s
par myHospitalNetwork.node[7].nic.phy80211p timeRXToSleep 0s
attr unit s
par myHospitalNetwork.node[7].nic.phy80211p timeTXToRX 0s
attr unit s
par myHospitalNetwork.node[7].nic.phy80211p timeTXToSleep 0s
attr unit s
par myHospitalNetwork.node[7].nic.phy80211p timeSleepToRX 0s
attr unit s
par myHospitalNetwork.node[7].nic.phy80211p timeSleepToTX 0s
attr unit s
par myHospitalNetwork.node[7].nic.phy80211p initialRadioState 0
par myHospitalNetwork.node[7].nic.phy80211p radioMinAtt 1
par myHospitalNetwork.node[7].nic.phy80211p radioMaxAtt 0
par myHospitalNetwork.node[7].nic.phy80211p nbRadioChannels 1
par myHospitalNetwork.node[7].nic.phy80211p initialRadioChannel 0
par myHospitalNetwork.node[7].nic.phy80211p ccaThreshold -65dBm
attr unit dBm
par myHospitalNetwork.node[7].nic.phy80211p collectCollisionStatistics false
par myHospitalNetwork.node[7].nic.phy80211p allowTxDuringRx false
scalar myHospitalNetwork.node[7].nic.phy80211p busyTime 0.03082116104868
par myHospitalNetwork.node[7].nic.mac1609_4 typename "\"org.car2x.veins.modules.mac.ieee80211p.Mac1609_4\""
par myHospitalNetwork.node[7].nic.mac1609_4 notAffectedByHostState false
par myHospitalNetwork.node[7].nic.mac1609_4 headerLength 0bit
attr unit bit
par myHospitalNetwork.node[7].nic.mac1609_4 address "\"auto\""
par myHospitalNetwork.node[7].nic.mac1609_4 useServiceChannel true
par myHospitalNetwork.node[7].nic.mac1609_4 serviceChannel 1
par myHospitalNetwork.node[7].nic.mac1609_4 bitrate 6000000bps
attr unit bps
par myHospitalNetwork.node[7].nic.mac1609_4 syncOffset 0.0003s
attr unit s
par myHospitalNetwork.node[7].nic.mac1609_4 txPower 20mW
attr unit mW
par myHospitalNetwork.node[7].nic.mac1609_4 queueSize 0
par myHospitalNetwork.node[7].nic.mac1609_4 dot11RTSThreshold 12000bit
attr unit bit
par myHospitalNetwork.node[7].nic.mac1609_4 dot11ShortRetryLimit 7
par myHospitalNetwork.node[7].nic.mac1609_4 dot11LongRetryLimit 4
par myHospitalNetwork.node[7].nic.mac1609_4 ackLength 112bit
attr unit bit
par myHospitalNetwork.node[7].nic.mac1609_4 useAcks false
par myHospitalNetwork.node[7].nic.mac1609_4 frameErrorRate 0
par myHospitalNetwork.node[7].nic.mac1609_4 ackErrorRate 0
scalar myHospitalNetwork.node[7].nic.mac1609_4 ReceivedUnicastPackets 0
scalar myHospitalNetwork.node[7].nic.mac1609_4 ReceivedBroadcasts 14104
scalar myHospitalNetwork.node[7].nic.mac1609_4 SentPackets 4270
scalar myHospitalNetwork.node[7].nic.mac1609_4 SentAcknowledgements 0
scalar myHospitalNetwork.node[7].nic.mac1609_4 RetriesExceeded 0
scalar myHospitalNetwork.node[7].nic.mac1609_4 SNIRLostPackets 22646
scalar myHospitalNetwork.node[7].nic.mac1609_4 RXTXLostPackets 6687
scalar myHospitalNetwork.node[7].nic.mac1609_4 TotalLostPackets 29333
scalar myHospitalNetwork.node[7].nic.mac1609_4 DroppedPacketsInMac 0
scalar myHospitalNetwork.node[7].nic.mac1609_4 TooLittleTime 1947
scalar myHospitalNetwork.node[7].nic.mac1609_4 TimesIntoBackoff 8540
scalar myHospitalNetwork.node[7].nic.mac1609_4 SlotsBackoff 6409
scalar myHospitalNetwork.node[7].nic.mac1609_4 NumInternalContention 0
scalar myHospitalNetwork.node[7].nic.mac1609_4 totalBusyTime 4.55506191866
scalar myHospitalNetwork.node[7].nic.mac1609_4 retriesExceeded:count 0
attr recordingmode count
attr source org_car2x_veins_modules_mac_sigRetriesExceeded
scalar myHospitalNetwork.node[7].nic.mac1609_4 sentAcks:count 0
attr recordingmode count
attr source org_car2x_veins_modules_mac_sigSentAck
scalar myHospitalNetwork.node[7].nic.mac1609_4 sentPackets:count 4270
attr recordingmode count
attr source org_car2x_veins_modules_mac_sigSentPacket
scalar myHospitalNetwork.node[7].nic.mac1609_4 collisions:count 0
attr recordingmode count
attr source org_car2x_veins_modules_mac_sigCollision
scalar myHospitalNetwork.node[7].nic.mac1609_4 channelBusy:timeavg 0.021325196248406
attr recordingmode timeavg
attr source org_car2x_veins_modules_mac_sigChannelBusy
par myHospitalNetwork.node[7].nic typename "\"org.car2x.veins.modules.nic.Nic80211p\""
par myHospitalNetwork.node[7].nic connectionManagerName "\"connectionManager\""
par myHospitalNetwork.node[7].veinsmobility typename "\"org.car2x.veins.modules.mobility.traci.TraCIMobility\""
par myHospitalNetwork.node[7].veinsmobility notAffectedByHostState true
par myHospitalNetwork.node[7].veinsmobility x 0
par myHospitalNetwork.node[7].veinsmobility y 0
par myHospitalNetwork.node[7].veinsmobility z 0
par myHospitalNetwork.node[7].veinsmobility xOrientation 1
par myHospitalNetwork.node[7].veinsmobility yOrientation 0
par myHospitalNetwork.node[7].veinsmobility zOrientation 0
par myHospitalNetwork.node[7].veinsmobility hostPositionOffset 0m
attr unit m
par myHospitalNetwork.node[7].veinsmobility setHostSpeed false
par myHospitalNetwork.node[7].veinsmobility accidentCount 0
par myHospitalNetwork.node[7].veinsmobility accidentStart 48.8824s
attr unit s
par myHospitalNetwork.node[7].veinsmobility accidentDuration "uniform(30s, 60s)"
attr unit s
par myHospitalNetwork.node[7].veinsmobility accidentInterval "uniform(30s, 60s)"
attr unit s
scalar myHospitalNetwork.node[7].veinsmobility startTime 32.1
scalar myHospitalNetwork.node[7].veinsmobility totalTime 213.5
scalar myHospitalNetwork.node[7].veinsmobility stopTime 245.7
scalar myHospitalNetwork.node[7].veinsmobility minSpeed 0
scalar myHospitalNetwork.node[7].veinsmobility maxSpeed 3.5906841916787
scalar myHospitalNetwork.node[7].veinsmobility totalDistance 763.45775971732
scalar myHospitalNetwork.node[7].veinsmobility totalCO2Emission 277.74367007605
par myHospitalNetwork.node[7] typename "\"org.car2x.veins.nodes.Car\""
par myHospitalNetwork.node[7] applType "\"AGVControlApp\""
par myHospitalNetwork.node[7] nicType "\"Nic80211p\""
par myHospitalNetwork.node[7] veinsmobilityType "\"org.car2x.veins.modules.mobility.traci.TraCIMobility\""
par myHospitalNetwork.node[9].appl typename "\"gr2.veins_inet.AGVControlApp\""
par myHospitalNetwork.node[9].appl headerLength 80bit
attr unit bit
par myHospitalNetwork.node[9].appl sendBeacons false
par myHospitalNetwork.node[9].appl beaconLengthBits 256bit
attr unit bit
par myHospitalNetwork.node[9].appl beaconUserPriority 7
par myHospitalNetwork.node[9].appl beaconInterval 0.1s
attr unit s
par myHospitalNetwork.node[9].appl dataLengthBits 1024bit
attr unit bit
par myHospitalNetwork.node[9].appl dataOnSch true
par myHospitalNetwork.node[9].appl dataUserPriority 7
par myHospitalNetwork.node[9].appl avoidBeaconSynchronization true
par myHospitalNetwork.node[9].appl sendWSA false
par myHospitalNetwork.node[9].appl wsaLengthBits 250bit
attr unit bit
par myHospitalNetwork.node[9].appl wsaInterval 1s
attr unit s
par myHospitalNetwork.node[9].appl appName "\"My first Veins App!\""
scalar myHospitalNetwork.node[9].appl generatedWSMs 0
scalar myHospitalNetwork.node[9].appl receivedWSMs 0
scalar myHospitalNetwork.node[9].appl generatedBSMs 1853
scalar myHospitalNetwork.node[9].appl receivedBSMs 0
scalar myHospitalNetwork.node[9].appl generatedWSAs 0
scalar myHospitalNetwork.node[9].appl receivedWSAs 0
par myHospitalNetwork.node[9].nic.phy80211p typename "\"org.car2x.veins.modules.phy.PhyLayer80211p\""
par myHospitalNetwork.node[9].nic.phy80211p recordStats false
par myHospitalNetwork.node[9].nic.phy80211p usePropagationDelay true
par myHospitalNetwork.node[9].nic.phy80211p noiseFloor -98dBm
attr unit dBm
par myHospitalNetwork.node[9].nic.phy80211p useNoiseFloor true
par myHospitalNetwork.node[9].nic.phy80211p antenna "<Antenna type=\"SampledAntenna1D\" id=\"monopole\">...</Antenna> at /home/duong/Desktop/omnetpp-6.0.1/workspace/Gr2/simulations/hh//antenna.xml:35"
par myHospitalNetwork.node[9].nic.phy80211p antennaOffsetX 0m
attr unit m
par myHospitalNetwork.node[9].nic.phy80211p antennaOffsetY 0m
attr unit m
par myHospitalNetwork.node[9].nic.phy80211p antennaOffsetZ 1.895m
attr unit m
[...]
par myHospitalNetwork.node[10].veinsmobility accidentStart 38.9881s
attr unit s
par myHospitalNetwork.node[10].veinsmobility accidentDuration "uniform(30s, 60s)"
attr unit s
par myHospitalNetwork.node[10].veinsmobility accidentInterval "uniform(30s, 60s)"
attr unit s
scalar myHospitalNetwork.node[10].veinsmobility startTime 68.1
scalar myHospitalNetwork.node[10].veinsmobility totalTime 186.5
scalar myHospitalNetwork.node[10].veinsmobility stopTime 254.7
scalar myHospitalNetwork.node[10].veinsmobility minSpeed 1.9
scalar myHospitalNetwork.node[10].veinsmobility maxSpeed 4.2620948539957
scalar myHospitalNetwork.node[10].veinsmobility totalDistance 794.10410233944
scalar myHospitalNetwork.node[10].veinsmobility totalCO2Emission 248.56341797888
par myHospitalNetwork.node[10] typename "\"org.car2x.veins.nodes.Car\""
par myHospitalNetwork.node[10] applType "\"AGVControlApp\""
par myHospitalNetwork.node[10] nicType "\"Nic80211p\""
par myHospitalNetwork.node[10] veinsmobilityType "\"org.car2x.veins.modules.mobility.traci.TraCIMobility\""
par myHospitalNetwork.node[11].appl typename "\"gr2.veins_inet.AGVControlApp\""
par myHospitalNetwork.node[11].appl headerLength 80bit
attr unit bit
par myHospitalNetwork.node[11].appl sendBeacons false
par myHospitalNetwork.node[11].appl beaconLengthBits 256bit
attr unit bit
par myHospitalNetwork.node[11].appl beaconUserPriority 7
par myHospitalNetwork.node[11].appl beaconInterval 0.1s
attr unit s
par myHospitalNetwork.node[11].appl dataLengthBits 1024bit
attr unit bit
par myHospitalNetwork.node[11].appl dataOnSch true
par myHospitalNetwork.node[11].appl dataUserPriority 7
par myHospitalNetwork.node[11].appl avoidBeaconSynchronization true
par myHospitalNetwork.node[11].appl sendWSA false
par myHospitalNetwork.node[11].appl wsaLengthBits 250bit
attr unit bit
par myHospitalNetwork.node[11].appl wsaInterval 1s
attr unit s
par myHospitalNetwork.node[11].appl appName "\"My first Veins App!\""
scalar myHospitalNetwork.node[11].appl generatedWSMs 0
scalar myHospitalNetwork.node[11].appl receivedWSMs 0
scalar myHospitalNetwork.node[11].appl generatedBSMs 1806
scalar myHospitalNetwork.node[11].appl receivedBSMs 0
scalar myHospitalNetwork.node[11].appl generatedWSAs 0
scalar myHospitalNetwork.node[11].appl receivedWSAs 0
par myHospitalNetwork.node[11].nic.phy80211p typename "\"org.car2x.veins.modules.phy.PhyLayer80211p\""
par myHospitalNetwork.node[11].nic.phy80211p recordStats false
par myHospitalNetwork.node[11].nic.phy80211p usePropagationDelay true
par myHospitalNetwork.node[11].nic.phy80211p noiseFloor -98dBm
attr unit dBm
par myHospitalNetwork.node[11].nic.phy80211p useNoiseFloor true
par myHospitalNetwork.node[11].nic.phy80211p antenna "<Antenna type=\"SampledAntenna1D\" id=\"monopole\">...</Antenna> at /home/duong/Desktop/omnetpp-6.0.1/workspace/Gr2/simulations/hh//antenna.xml:35"
par myHospitalNetwork.node[11].nic.phy80211p antennaOffsetX 0m
attr unit m
par myHospitalNetwork.node[11].nic.phy80211p antennaOffsetY 0m
attr unit m
par myHospitalNetwork.node[11].nic.phy80211p antennaOffsetZ 1.895m
attr unit m
par myHospitalNetwork.node[11].nic.phy80211p antennaOffsetYaw 0rad
attr unit rad
par myHospitalNetwork.node[11].nic.phy80211p analogueModels "<root>...</root> at /home/duong/Desktop/omnetpp-6.0.1/workspace/Gr2/simulations/hh//config.xml:34"
par myHospitalNetwork.node[11].nic.phy80211p decider "<root>...</root> at /home/duong/Desktop/omnetpp-6.0.1/workspace/Gr2/simulations/hh//config.xml:34"
par myHospitalNetwork.node[11].nic.phy80211p minPowerLevel -110dBm
attr unit dBm
par myHospitalNetwork.node[11].nic.phy80211p timeRXToTX 0s
attr unit s
par myHospitalNetwork.node[11].nic.phy80211p timeRXToSleep 0s
attr unit s
par myHospitalNetwork.node[11].nic.phy80211p timeTXToRX 0s
attr unit s
par myHospitalNetwork.node[11].nic.phy80211p timeTXToSleep 0s
attr unit s
par myHospitalNetwork.node[11].nic.phy80211p timeSleepToRX 0s
attr unit s
par myHospitalNetwork.node[11].nic.phy80211p timeSleepToTX 0s
attr unit s
par myHospitalNetwork.node[11].nic.phy80211p initialRadioState 0
par myHospitalNetwork.node[11].nic.phy80211p radioMinAtt 1
par myHospitalNetwork.node[11].nic.phy80211p radioMaxAtt 0
par myHospitalNetwork.node[11].nic.phy80211p nbRadioChannels 1
par myHospitalNetwork.node[11].nic.phy80211p initialRadioChannel 0
par myHospitalNetwork.node[11].nic.phy80211p ccaThreshold -65dBm
attr unit dBm
par myHospitalNetwork.node[11].nic.phy80211p collectCollisionStatistics false
par myHospitalNetwork.node[11].nic.phy80211p allowTxDuringRx false
scalar myHospitalNetwork.node[11].nic.phy80211p busyTime 0.025511539313395
par myHospitalNetwork.node[11].nic.mac1609_4 typename "\"org.car2x.veins.modules.mac.ieee80211p.Mac1609_4\""
par myHospitalNetwork.node[11].nic.mac1609_4 notAffectedByHostState false
par myHospitalNetwork.node[11].nic.mac1609_4 headerLength 0bit
attr unit bit
par myHospitalNetwork.node[11].nic.mac1609_4 address "\"auto\""
par myHospitalNetwork.node[11].nic.mac1609_4 useServiceChannel true
par myHospitalNetwork.node[11].nic.mac1609_4 serviceChannel 1
par myHospitalNetwork.node[11].nic.mac1609_4 bitrate 6000000bps
attr unit bps
par myHospitalNetwork.node[11].nic.mac1609_4 syncOffset 0.0003s
attr unit s
par myHospitalNetwork.node[11].nic.mac1609_4 txPower 20mW
attr unit mW
par myHospitalNetwork.node[11].nic.mac1609_4 queueSize 0
par myHospitalNetwork.node[11].nic.mac1609_4 dot11RTSThreshold 12000bit
attr unit bit
par myHospitalNetwork.node[11].nic.mac1609_4 dot11ShortRetryLimit 7
par myHospitalNetwork.node[11].nic.mac1609_4 dot11LongRetryLimit 4
par myHospitalNetwork.node[11].nic.mac1609_4 ackLength 112bit
attr unit bit
par myHospitalNetwork.node[11].nic.mac1609_4 useAcks false
par myHospitalNetwork.node[11].nic.mac1609_4 frameErrorRate 0
par myHospitalNetwork.node[11].nic.mac1609_4 ackErrorRate 0
scalar myHospitalNetwork.node[11].nic.mac1609_4 ReceivedUnicastPackets 0
scalar myHospitalNetwork.node[11].nic.mac1609_4 ReceivedBroadcasts 10702
scalar myHospitalNetwork.node[11].nic.mac1609_4 SentPackets 3610
scalar myHospitalNetwork.node[11].nic.mac1609_4 SentAcknowledgements 0
scalar myHospitalNetwork.node[11].nic.mac1609_4 RetriesExceeded 0
scalar myHospitalNetwork.node[11].nic.mac1609_4 SNIRLostPackets 14818
scalar myHospitalNetwork.node[11].nic.mac1609_4 RXTXLostPackets 4855
scalar myHospitalNetwork.node[11].nic.mac1609_4 TotalLostPackets 19673
scalar myHospitalNetwork.node[11].nic.mac1609_4 DroppedPacketsInMac 0
scalar myHospitalNetwork.node[11].nic.mac1609_4 TooLittleTime 3179
scalar myHospitalNetwork.node[11].nic.mac1609_4 TimesIntoBackoff 7387
scalar myHospitalNetwork.node[11].nic.mac1609_4 SlotsBackoff 5526
scalar myHospitalNetwork.node[11].nic.mac1609_4 NumInternalContention 0
scalar myHospitalNetwork.node[11].nic.mac1609_4 totalBusyTime 3.444235962008
scalar myHospitalNetwork.node[11].nic.mac1609_4 retriesExceeded:count 0
attr recordingmode count
attr source org_car2x_veins_modules_mac_sigRetriesExceeded
scalar myHospitalNetwork.node[11].nic.mac1609_4 sentAcks:count 0
attr recordingmode count
attr source org_car2x_veins_modules_mac_sigSentAck
scalar myHospitalNetwork.node[11].nic.mac1609_4 sentPackets:count 3610
attr recordingmode count
attr source org_car2x_veins_modules_mac_sigSentPacket
scalar myHospitalNetwork.node[11].nic.mac1609_4 collisions:count 0
attr recordingmode count
attr source org_car2x_veins_modules_mac_sigCollision
scalar myHospitalNetwork.node[11].nic.mac1609_4 channelBusy:timeavg 0.019071073986756
attr recordingmode timeavg
attr source org_car2x_veins_modules_mac_sigChannelBusy
par myHospitalNetwork.node[11].nic typename "\"org.car2x.veins.modules.nic.Nic80211p\""
par myHospitalNetwork.node[11].nic connectionManagerName "\"connectionManager\""
par myHospitalNetwork.node[11].veinsmobility typename "\"org.car2x.veins.modules.mobility.traci.TraCIMobility\""
par myHospitalNetwork.node[11].veinsmobility notAffectedByHostState true
par myHospitalNetwork.node[11].veinsmobility x 0
par myHospitalNetwork.node[11].veinsmobility y 0
par myHospitalNetwork.node[11].veinsmobility z 0
par myHospitalNetwork.node[11].veinsmobility xOrientation 1
par myHospitalNetwork.node[11].veinsmobility yOrientation 0
par myHospitalNetwork.node[11].veinsmobility zOrientation 0
par myHospitalNetwork.node[11].veinsmobility hostPositionOffset 0m
attr unit m
par myHospitalNetwork.node[11].veinsmobility setHostSpeed false
par myHospitalNetwork.node[11].veinsmobility accidentCount 0
par myHospitalNetwork.node[11].veinsmobility accidentStart 34.5513s
attr unit s
par myHospitalNetwork.node[11].veinsmobility accidentDuration "uniform(30s, 60s)"
attr unit s
par myHospitalNetwork.node[11].veinsmobility accidentInterval "uniform(30s, 60s)"
attr unit s
scalar myHospitalNetwork.node[11].veinsmobility startTime 98.1
scalar myHospitalNetwork.node[11].veinsmobility totalTime 180.5
scalar myHospitalNetwork.node[11].veinsmobility stopTime 278.7
scalar myHospitalNetwork.node[11].veinsmobility minSpeed 1.9
scalar myHospitalNetwork.node[11].veinsmobility maxSpeed 4.4068146560411
scalar myHospitalNetwork.node[11].veinsmobility totalDistance 794.19399200582
scalar myHospitalNetwork.node[11].veinsmobility totalCO2Emission 243.66077023721
par myHospitalNetwork.node[11] typename "\"org.car2x.veins.nodes.Car\""
par myHospitalNetwork.node[11] applType "\"AGVControlApp\""
par myHospitalNetwork.node[11] nicType "\"Nic80211p\""
par myHospitalNetwork.node[11] veinsmobilityType "\"org.car2x.veins.modules.mobility.traci.TraCIMobility\""
par myHospitalNetwork.obstacles typename "\"org.car2x.veins.modules.obstacle.ObstacleControl\""
par myHospitalNetwork.obstacles obstacles "<obstacles/> at content:1"
par myHospitalNetwork.obstacles gridCellSize 250
par myHospitalNetwork.annotations typename "\"org.car2x.veins.modules.world.annotations.AnnotationManager\""
par myHospitalNetwork.annotations draw true
par myHospitalNetwork.annotations annotations "<annotations/> at content:1"
par myHospitalNetwork.connectionManager typename "\"org.car2x.veins.base.connectionManager.ConnectionManager\""
par myHospitalNetwork.connectionManager sendDirect true
par myHospitalNetwork.connectionManager maxInterfDist 2600m
attr unit m
par myHospitalNetwork.connectionManager drawMaxIntfDist false
par myHospitalNetwork.world typename "\"org.car2x.veins.base.modules.BaseWorldUtility\""
par myHospitalNetwork.world playgroundSizeX 2500m
attr unit m
par myHospitalNetwork.world playgroundSizeY 2500m
attr unit m
par myHospitalNetwork.world playgroundSizeZ 50m
attr unit m
par myHospitalNetwork.world useTorus false
par myHospitalNetwork.world use2D false
par myHospitalNetwork.manager typename "\"org.car2x.veins.modules.mobility.traci.TraCIScenarioManagerLaunchd\""
par myHospitalNetwork.manager connectAt 0s
attr unit s
par myHospitalNetwork.manager firstStepAt -1s
attr unit s
par myHospitalNetwork.manager updateInterval 0.1s
attr unit s
par myHospitalNetwork.manager moduleType "\"agv=org.car2x.veins.nodes.Car pedestrian=gr2.veins_inet.IPerson\""
par myHospitalNetwork.manager moduleName "\"agv=node pedestrian=personNode\""
par myHospitalNetwork.manager moduleDisplayString "\"agv='i=veins/node/car;is=vs' pedestrian='i=veins/node/pedestrian;is=vs'\""
par myHospitalNetwork.manager trafficLightModuleType "\"\""
par myHospitalNetwork.manager trafficLightModuleName "\"tls\""
par myHospitalNetwork.manager trafficLightFilter "\"\""
par myHospitalNetwork.manager trafficLightModuleDisplayString "\"i=misc/node2;is=vs;r=0,,#707070,1\""
par myHospitalNetwork.manager host "\"localhost\""
par myHospitalNetwork.manager port 9999
par myHospitalNetwork.manager seed -1
par myHospitalNetwork.manager autoShutdown true
par myHospitalNetwork.manager margin 25
par myHospitalNetwork.manager roiRoads "\"\""
par myHospitalNetwork.manager roiRects "\"\""
par myHospitalNetwork.manager penetrationRate 1
par myHospitalNetwork.manager ignoreGuiCommands false
par myHospitalNetwork.manager order -1
par myHospitalNetwork.manager ignoreUnknownSubscriptionResults false
par myHospitalNetwork.manager launchConfig "<launch>...</launch> at /home/duong/Desktop/omnetpp-6.0.1/workspace/Gr2/simulations/hh//vd012.launchd.xml:34"
scalar myHospitalNetwork.manager roiArea 0
par myHospitalNetwork.roadsCanvasVisualizer typename "\"org.car2x.veins.visualizer.roads.RoadsCanvasVisualizer\""
par myHospitalNetwork.roadsCanvasVisualizer enabled true
par myHospitalNetwork.roadsCanvasVisualizer lineZIndex -1
par myHospitalNetwork.roadsCanvasVisualizer lineColor "\"firebrick4\""
par myHospitalNetwork.roadsCanvasVisualizer lineWidth 1
par myHospitalNetwork.roadsCanvasVisualizer lineWidthZoom false
par myHospitalNetwork.rsu[0].appl typename "\"gr2.veins_inet.HospitalControlApp\""
par myHospitalNetwork.rsu[0].appl headerLength 80bit
attr unit bit
par myHospitalNetwork.rsu[0].appl sendBeacons false
par myHospitalNetwork.rsu[0].appl beaconLengthBits 256bit
attr unit bit
par myHospitalNetwork.rsu[0].appl beaconUserPriority 7
par myHospitalNetwork.rsu[0].appl beaconInterval 1s
attr unit s
par myHospitalNetwork.rsu[0].appl dataLengthBits 1024bit
attr unit bit
par myHospitalNetwork.rsu[0].appl dataOnSch false
par myHospitalNetwork.rsu[0].appl dataUserPriority 7
par myHospitalNetwork.rsu[0].appl avoidBeaconSynchronization true
par myHospitalNetwork.rsu[0].appl sendWSA false
par myHospitalNetwork.rsu[0].appl wsaLengthBits 250bit
attr unit bit
par myHospitalNetwork.rsu[0].appl wsaInterval 1s
attr unit s
scalar myHospitalNetwork.rsu[0].appl generatedWSMs 0
scalar myHospitalNetwork.rsu[0].appl receivedWSMs 7428
scalar myHospitalNetwork.rsu[0].appl generatedBSMs 0
scalar myHospitalNetwork.rsu[0].appl receivedBSMs 6178
scalar myHospitalNetwork.rsu[0].appl generatedWSAs 0
scalar myHospitalNetwork.rsu[0].appl receivedWSAs 0
par myHospitalNetwork.rsu[0].nic.phy80211p typename "\"org.car2x.veins.modules.phy.PhyLayer80211p\""
par myHospitalNetwork.rsu[0].nic.phy80211p recordStats false
par myHospitalNetwork.rsu[0].nic.phy80211p usePropagationDelay true
par myHospitalNetwork.rsu[0].nic.phy80211p noiseFloor -98dBm
attr unit dBm
par myHospitalNetwork.rsu[0].nic.phy80211p useNoiseFloor true
par myHospitalNetwork.rsu[0].nic.phy80211p antenna "<Antenna type=\"SampledAntenna1D\" id=\"monopole\">...</Antenna> at /home/duong/Desktop/omnetpp-6.0.1/workspace/Gr2/simulations/hh//antenna.xml:35"
par myHospitalNetwork.rsu[0].nic.phy80211p antennaOffsetX 0m
attr unit m
par myHospitalNetwork.rsu[0].nic.phy80211p antennaOffsetY 0m
attr unit m
par myHospitalNetwork.rsu[0].nic.phy80211p antennaOffsetZ 0m
attr unit m
par myHospitalNetwork.rsu[0].nic.phy80211p antennaOffsetYaw 0rad
attr unit rad
par myHospitalNetwork.rsu[0].nic.phy80211p analogueModels "<root>...</root> at /home/duong/Desktop/omnetpp-6.0.1/workspace/Gr2/simulations/hh//config.xml:34"
par myHospitalNetwork.rsu[0].nic.phy80211p decider "<root>...</root> at /home/duong/Desktop/omnetpp-6.0.1/workspace/Gr2/simulations/hh//config.xml:34"
par myHospitalNetwork.rsu[0].nic.phy80211p minPowerLevel -110dBm
attr unit dBm
par myHospitalNetwork.rsu[0].nic.phy80211p timeRXToTX 0s
attr unit s
par myHospitalNetwork.rsu[0].nic.phy80211p timeRXToSleep 0s
attr unit s
par myHospitalNetwork.rsu[0].nic.phy80211p timeTXToRX 0s
attr unit s
par myHospitalNetwork.rsu[0].nic.phy80211p timeTXToSleep 0s
attr unit s
par myHospitalNetwork.rsu[0].nic.phy80211p timeSleepToRX 0s
attr unit s
par myHospitalNetwork.rsu[0].nic.phy80211p timeSleepToTX 0s
attr unit s
par myHospitalNetwork.rsu[0].nic.phy80211p initialRadioState 0
par myHospitalNetwork.rsu[0].nic.phy80211p radioMinAtt 1
par myHospitalNetwork.rsu[0].nic.phy80211p radioMaxAtt 0
par myHospitalNetwork.rsu[0].nic.phy80211p nbRadioChannels 1
par myHospitalNetwork.rsu[0].nic.phy80211p initialRadioChannel 0
par myHospitalNetwork.rsu[0].nic.phy80211p ccaThreshold -65dBm
attr unit dBm
par myHospitalNetwork.rsu[0].nic.phy80211p collectCollisionStatistics false
par myHospitalNetwork.rsu[0].nic.phy80211p allowTxDuringRx false
scalar myHospitalNetwork.rsu[0].nic.phy80211p busyTime 0.0018909222222216
par myHospitalNetwork.rsu[0].nic.mac1609_4 typename "\"org.car2x.veins.modules.mac.ieee80211p.Mac1609_4\""
par myHospitalNetwork.rsu[0].nic.mac1609_4 notAffectedByHostState false
par myHospitalNetwork.rsu[0].nic.mac1609_4 headerLength 0bit
attr unit bit
par myHospitalNetwork.rsu[0].nic.mac1609_4 address "\"auto\""
par myHospitalNetwork.rsu[0].nic.mac1609_4 useServiceChannel true
par myHospitalNetwork.rsu[0].nic.mac1609_4 serviceChannel 1
par myHospitalNetwork.rsu[0].nic.mac1609_4 bitrate 6000000bps
attr unit bps
par myHospitalNetwork.rsu[0].nic.mac1609_4 syncOffset 0.0003s
attr unit s
par myHospitalNetwork.rsu[0].nic.mac1609_4 txPower 20mW
attr unit mW
par myHospitalNetwork.rsu[0].nic.mac1609_4 queueSize 0
par myHospitalNetwork.rsu[0].nic.mac1609_4 dot11RTSThreshold 12000bit
attr unit bit
par myHospitalNetwork.rsu[0].nic.mac1609_4 dot11ShortRetryLimit 7
par myHospitalNetwork.rsu[0].nic.mac1609_4 dot11LongRetryLimit 4
par myHospitalNetwork.rsu[0].nic.mac1609_4 ackLength 112bit
attr unit bit
par myHospitalNetwork.rsu[0].nic.mac1609_4 useAcks false
par myHospitalNetwork.rsu[0].nic.mac1609_4 frameErrorRate 0
par myHospitalNetwork.rsu[0].nic.mac1609_4 ackErrorRate 0
scalar myHospitalNetwork.rsu[0].nic.mac1609_4 ReceivedUnicastPackets 0
scalar myHospitalNetwork.rsu[0].nic.mac1609_4 ReceivedBroadcasts 13606
scalar myHospitalNetwork.rsu[0].nic.mac1609_4 SentPackets 7428
scalar myHospitalNetwork.rsu[0].nic.mac1609_4 SentAcknowledgements 0
scalar myHospitalNetwork.rsu[0].nic.mac1609_4 RetriesExceeded 0
scalar myHospitalNetwork.rsu[0].nic.mac1609_4 SNIRLostPackets 23431
scalar myHospitalNetwork.rsu[0].nic.mac1609_4 RXTXLostPackets 9139
scalar myHospitalNetwork.rsu[0].nic.mac1609_4 TotalLostPackets 32570
scalar myHospitalNetwork.rsu[0].nic.mac1609_4 DroppedPacketsInMac 0
scalar myHospitalNetwork.rsu[0].nic.mac1609_4 TooLittleTime 0
scalar myHospitalNetwork.rsu[0].nic.mac1609_4 TimesIntoBackoff 10196
scalar myHospitalNetwork.rsu[0].nic.mac1609_4 SlotsBackoff 11116
scalar myHospitalNetwork.rsu[0].nic.mac1609_4 NumInternalContention 0
scalar myHospitalNetwork.rsu[0].nic.mac1609_4 totalBusyTime 5.410347933119
scalar myHospitalNetwork.rsu[0].nic.mac1609_4 retriesExceeded:count 0
attr recordingmode count
attr source org_car2x_veins_modules_mac_sigRetriesExceeded
scalar myHospitalNetwork.rsu[0].nic.mac1609_4 sentAcks:count 0
attr recordingmode count
attr source org_car2x_veins_modules_mac_sigSentAck
scalar myHospitalNetwork.rsu[0].nic.mac1609_4 sentPackets:count 7428
attr recordingmode count
attr source org_car2x_veins_modules_mac_sigSentPacket
scalar myHospitalNetwork.rsu[0].nic.mac1609_4 collisions:count 0
attr recordingmode count
attr source org_car2x_veins_modules_mac_sigCollision
scalar myHospitalNetwork.rsu[0].nic.mac1609_4 channelBusy:timeavg 0.0015010699814217
attr recordingmode timeavg
attr source org_car2x_veins_modules_mac_sigChannelBusy
par myHospitalNetwork.rsu[0].nic typename "\"org.car2x.veins.modules.nic.Nic80211p\""
par myHospitalNetwork.rsu[0].nic connectionManagerName "\"connectionManager\""
par myHospitalNetwork.rsu[0].mobility typename "\"org.car2x.veins.base.modules.BaseMobility\""
par myHospitalNetwork.rsu[0].mobility notAffectedByHostState true
par myHospitalNetwork.rsu[0].mobility x 300
par myHospitalNetwork.rsu[0].mobility y 300
par myHospitalNetwork.rsu[0].mobility z 3
par myHospitalNetwork.rsu[0].mobility xOrientation 1
par myHospitalNetwork.rsu[0].mobility yOrientation 0
par myHospitalNetwork.rsu[0].mobility zOrientation 0
par myHospitalNetwork.rsu[0] typename "\"org.car2x.veins.nodes.RSU\""
par myHospitalNetwork.rsu[0] applType "\"HospitalControlApp\""
par myHospitalNetwork.rsu[0] nicType "\"Nic80211p\""
par myHospitalNetwork typename "\"gr2.simulations.hh.myHospitalNetwork\""
par myHospitalNetwork playgroundSizeX 2500m
attr unit m
par myHospitalNetwork playgroundSizeY 2500m
attr unit m
par myHospitalNetwork playgroundSizeZ 50m
attr unit m

