version 3
run General-0-20230610-15:08:11-89594
attr configname General
attr datetime 20230610-15:08:11
attr datetimef 20230610-150811
attr experiment General
attr inifile omnetpp.ini
attr iterationvars ""
attr iterationvarsd ""
attr iterationvarsf ""
attr measurement ""
attr network myHospitalNetwork
attr processid 89594
attr repetition 0
attr replication #0
attr resultdir results
attr runnumber 0
attr seedset 0
config image-path ../../../inet/images:../../../veins/images
config cmdenv-express-mode true
config cmdenv-autoflush true
config cmdenv-status-frequency 0.1s
config **.cmdenv-log-level info
config ned-path .
config image-path ../../images
config network myHospitalNetwork
config debug-on-errors true
config print-undisposed false
config sim-time-limit 3600s
config **.scalar-recording true
config **.vector-recording true
config *.playgroundSizeX 2500m
config *.playgroundSizeY 2500m
config *.playgroundSizeZ 50m
config *.annotations.draw true
config *.manager.updateInterval 0.1s
config *.manager.host "\"localhost\""
config *.manager.port 9999
config *.manager.autoShutdown true
config *.manager.launchConfig "xmldoc(\"vd012.launchd.xml\")"
config *.manager.moduleType "\"agv=org.car2x.veins.nodes.Car pedestrian=gr2.veins_inet.IPerson\""
config *.manager.moduleName "\"agv=node pedestrian=personNode\""
config *.manager.moduleDisplayString "\"agv='i=veins/node/car;is=vs' pedestrian='i=veins/node/pedestrian;is=vs'\""
config *.rsu[0].mobility.x 300
config *.rsu[0].mobility.y 300
config *.rsu[0].mobility.z 3
config *.rsu[*].applType "\"HospitalControlApp\""
config *.rsu[*].appl.headerLength "80 bit"
config *.rsu[*].appl.sendBeacons false
config *.rsu[*].appl.dataOnSch false
config *.rsu[*].nic.phy80211p.antennaOffsetZ "0 m"
config *.connectionManager.sendDirect true
config *.connectionManager.maxInterfDist 2600m
config *.connectionManager.drawMaxIntfDist false
config *.**.nic.mac1609_4.useServiceChannel true
config *.**.nic.mac1609_4.txPower 20mW
config *.**.nic.mac1609_4.bitrate 6Mbps
config *.**.nic.phy80211p.minPowerLevel -110dBm
config *.**.nic.phy80211p.useNoiseFloor true
config *.**.nic.phy80211p.noiseFloor -98dBm
config *.**.nic.phy80211p.decider "xmldoc(\"config.xml\")"
config *.**.nic.phy80211p.analogueModels "xmldoc(\"config.xml\")"
config *.**.nic.phy80211p.usePropagationDelay true
config *.**.nic.phy80211p.antenna "xmldoc(\"antenna.xml\", \"/root/Antenna[@id='monopole']\")"
config *.node[*].nic.phy80211p.antennaOffsetY "0 m"
config *.node[*].nic.phy80211p.antennaOffsetZ "1.895 m"
config *.node[*].applType "\"AGVControlApp\""
config *.node[*].appl.headerLength "80 bit"
config *.node[*].appl.sendBeacons false
config *.node[*].appl.dataOnSch true
config *.node[*].appl.beaconInterval 0.1s
config *.node[*].veinsmobility.x 0
config *.node[*].veinsmobility.y 0
config *.node[*].veinsmobility.z 0
config *.node[*].veinsmobility.setHostSpeed false
config *.node[*0].veinsmobility.accidentCount 0

par myHospitalNetwork.obstacles typename "\"org.car2x.veins.modules.obstacle.ObstacleControl\""
par myHospitalNetwork.obstacles obstacles "<obstacles/> at content:1"
par myHospitalNetwork.obstacles gridCellSize 250
par myHospitalNetwork.annotations typename "\"org.car2x.veins.modules.world.annotations.AnnotationManager\""
par myHospitalNetwork.annotations draw true
par myHospitalNetwork.annotations annotations "<annotations/> at content:1"
par myHospitalNetwork.connectionManager typename "\"org.car2x.veins.base.connectionManager.ConnectionManager\""
par myHospitalNetwork.connectionManager sendDirect true
par myHospitalNetwork.connectionManager maxInterfDist 2600m
attr unit m
par myHospitalNetwork.connectionManager drawMaxIntfDist false
par myHospitalNetwork.world typename "\"org.car2x.veins.base.modules.BaseWorldUtility\""
par myHospitalNetwork.world playgroundSizeX 2500m
attr unit m
par myHospitalNetwork.world playgroundSizeY 2500m
attr unit m
par myHospitalNetwork.world playgroundSizeZ 50m
attr unit m
par myHospitalNetwork.world useTorus false
par myHospitalNetwork.world use2D false
par myHospitalNetwork.manager typename "\"org.car2x.veins.modules.mobility.traci.TraCIScenarioManagerLaunchd\""
par myHospitalNetwork.manager connectAt 0s
attr unit s
par myHospitalNetwork.manager firstStepAt -1s
attr unit s
par myHospitalNetwork.manager updateInterval 0.1s
attr unit s
par myHospitalNetwork.manager moduleType "\"agv=org.car2x.veins.nodes.Car pedestrian=gr2.veins_inet.IPerson\""
par myHospitalNetwork.manager moduleName "\"agv=node pedestrian=personNode\""
par myHospitalNetwork.manager moduleDisplayString "\"agv='i=veins/node/car;is=vs' pedestrian='i=veins/node/pedestrian;is=vs'\""
par myHospitalNetwork.manager trafficLightModuleType "\"\""
par myHospitalNetwork.manager trafficLightModuleName "\"tls\""
par myHospitalNetwork.manager trafficLightFilter "\"\""
par myHospitalNetwork.manager trafficLightModuleDisplayString "\"i=misc/node2;is=vs;r=0,,#707070,1\""
par myHospitalNetwork.manager host "\"localhost\""
par myHospitalNetwork.manager port 9999
par myHospitalNetwork.manager seed -1
par myHospitalNetwork.manager autoShutdown true
par myHospitalNetwork.manager margin 25
par myHospitalNetwork.manager roiRoads "\"\""
par myHospitalNetwork.manager roiRects "\"\""
par myHospitalNetwork.manager penetrationRate 1
par myHospitalNetwork.manager ignoreGuiCommands false
par myHospitalNetwork.manager order -1
par myHospitalNetwork.manager ignoreUnknownSubscriptionResults false
par myHospitalNetwork.manager launchConfig "<launch>...</launch> at /home/duong/Desktop/omnetpp-6.0.1/workspace/Gr2/simulations/hh//vd012.launchd.xml:34"
scalar myHospitalNetwork.manager roiArea 0
par myHospitalNetwork.roadsCanvasVisualizer typename "\"org.car2x.veins.visualizer.roads.RoadsCanvasVisualizer\""
par myHospitalNetwork.roadsCanvasVisualizer enabled true
par myHospitalNetwork.roadsCanvasVisualizer lineZIndex -1
par myHospitalNetwork.roadsCanvasVisualizer lineColor "\"firebrick4\""
par myHospitalNetwork.roadsCanvasVisualizer lineWidth 1
par myHospitalNetwork.roadsCanvasVisualizer lineWidthZoom false
par myHospitalNetwork.node[0].appl typename "\"gr2.veins_inet.AGVControlApp\""
par myHospitalNetwork.node[0].appl headerLength 80bit
attr unit bit
par myHospitalNetwork.node[0].appl sendBeacons false
par myHospitalNetwork.node[0].appl beaconLengthBits 256bit
attr unit bit
par myHospitalNetwork.node[0].appl beaconUserPriority 7
par myHospitalNetwork.node[0].appl beaconInterval 0.1s
attr unit s
par myHospitalNetwork.node[0].appl dataLengthBits 1024bit
attr unit bit
par myHospitalNetwork.node[0].appl dataOnSch true
par myHospitalNetwork.node[0].appl dataUserPriority 7
par myHospitalNetwork.node[0].appl avoidBeaconSynchronization true
par myHospitalNetwork.node[0].appl sendWSA false
par myHospitalNetwork.node[0].appl wsaLengthBits 250bit
attr unit bit
par myHospitalNetwork.node[0].appl wsaInterval 1s
attr unit s
par myHospitalNetwork.node[0].appl appName "\"My first Veins App!\""
scalar myHospitalNetwork.node[0].appl generatedWSMs 0
scalar myHospitalNetwork.node[0].appl receivedWSMs 0
scalar myHospitalNetwork.node[0].appl generatedBSMs 742
scalar myHospitalNetwork.node[0].appl receivedBSMs 0
scalar myHospitalNetwork.node[0].appl generatedWSAs 0
scalar myHospitalNetwork.node[0].appl receivedWSAs 0
par myHospitalNetwork.node[0].nic.phy80211p typename "\"org.car2x.veins.modules.phy.PhyLayer80211p\""
par myHospitalNetwork.node[0].nic.phy80211p recordStats false
par myHospitalNetwork.node[0].nic.phy80211p usePropagationDelay true
par myHospitalNetwork.node[0].nic.phy80211p noiseFloor -98dBm
attr unit dBm
par myHospitalNetwork.node[0].nic.phy80211p useNoiseFloor true
par myHospitalNetwork.node[0].nic.phy80211p antenna "<Antenna type=\"SampledAntenna1D\" id=\"monopole\">...</Antenna> at /home/duong/Desktop/omnetpp-6.0.1/workspace/Gr2/simulations/hh//antenna.xml:35"
par myHospitalNetwork.node[0].nic.phy80211p antennaOffsetX 0m
attr unit m
par myHospitalNetwork.node[0].nic.phy80211p antennaOffsetY 0m
attr unit m
par myHospitalNetwork.node[0].nic.phy80211p antennaOffsetZ 1.895m
attr unit m
par myHospitalNetwork.node[0].nic.phy80211p antennaOffsetYaw 0rad
attr unit rad
par myHospitalNetwork.node[0].nic.phy80211p analogueModels "<root>...</root> at /home/duong/Desktop/omnetpp-6.0.1/workspace/Gr2/simulations/hh//config.xml:34"
par myHospitalNetwork.node[0].nic.phy80211p decider "<root>...</root> at /home/duong/Desktop/omnetpp-6.0.1/workspace/Gr2/simulations/hh//config.xml:34"
par myHospitalNetwork.node[0].nic.phy80211p minPowerLevel -110dBm
attr unit dBm
par myHospitalNetwork.node[0].nic.phy80211p timeRXToTX 0s
attr unit s
par myHospitalNetwork.node[0].nic.phy80211p timeRXToSleep 0s
attr unit s
par myHospitalNetwork.node[0].nic.phy80211p timeTXToRX 0s
attr unit s
par myHospitalNetwork.node[0].nic.phy80211p timeTXToSleep 0s
attr unit s
par myHospitalNetwork.node[0].nic.phy80211p timeSleepToRX 0s
attr unit s
par myHospitalNetwork.node[0].nic.phy80211p timeSleepToTX 0s
attr unit s
par myHospitalNetwork.node[0].nic.phy80211p initialRadioState 0
par myHospitalNetwork.node[0].nic.phy80211p radioMinAtt 1
par myHospitalNetwork.node[0].nic.phy80211p radioMaxAtt 0
par myHospitalNetwork.node[0].nic.phy80211p nbRadioChannels 1
par myHospitalNetwork.node[0].nic.phy80211p initialRadioChannel 0
par myHospitalNetwork.node[0].nic.phy80211p ccaThreshold -65dBm
attr unit dBm
par myHospitalNetwork.node[0].nic.phy80211p collectCollisionStatistics false
par myHospitalNetwork.node[0].nic.phy80211p allowTxDuringRx false
scalar myHospitalNetwork.node[0].nic.phy80211p busyTime 0.022668355795151
par myHospitalNetwork.node[0].nic.mac1609_4 typename "\"org.car2x.veins.modules.mac.ieee80211p.Mac1609_4\""
par myHospitalNetwork.node[0].nic.mac1609_4 notAffectedByHostState false
par myHospitalNetwork.node[0].nic.mac1609_4 headerLength 0bit
attr unit bit
par myHospitalNetwork.node[0].nic.mac1609_4 address "\"auto\""
par myHospitalNetwork.node[0].nic.mac1609_4 useServiceChannel true
par myHospitalNetwork.node[0].nic.mac1609_4 serviceChannel 1
par myHospitalNetwork.node[0].nic.mac1609_4 bitrate 6000000bps
attr unit bps
par myHospitalNetwork.node[0].nic.mac1609_4 syncOffset 0.0003s
attr unit s
par myHospitalNetwork.node[0].nic.mac1609_4 txPower 20mW
attr unit mW
par myHospitalNetwork.node[0].nic.mac1609_4 queueSize 0
par myHospitalNetwork.node[0].nic.mac1609_4 dot11RTSThreshold 12000bit
attr unit bit
par myHospitalNetwork.node[0].nic.mac1609_4 dot11ShortRetryLimit 7
par myHospitalNetwork.node[0].nic.mac1609_4 dot11LongRetryLimit 4
par myHospitalNetwork.node[0].nic.mac1609_4 ackLength 112bit
attr unit bit
par myHospitalNetwork.node[0].nic.mac1609_4 useAcks false
par myHospitalNetwork.node[0].nic.mac1609_4 frameErrorRate 0
par myHospitalNetwork.node[0].nic.mac1609_4 ackErrorRate 0
scalar myHospitalNetwork.node[0].nic.mac1609_4 ReceivedUnicastPackets 0
scalar myHospitalNetwork.node[0].nic.mac1609_4 ReceivedBroadcasts 4466
scalar myHospitalNetwork.node[0].nic.mac1609_4 SentPackets 1482
scalar myHospitalNetwork.node[0].nic.mac1609_4 SentAcknowledgements 0
scalar myHospitalNetwork.node[0].nic.mac1609_4 RetriesExceeded 0
scalar myHospitalNetwork.node[0].nic.mac1609_4 SNIRLostPackets 5027
scalar myHospitalNetwork.node[0].nic.mac1609_4 RXTXLostPackets 2611
scalar myHospitalNetwork.node[0].nic.mac1609_4 TotalLostPackets 7638
scalar myHospitalNetwork.node[0].nic.mac1609_4 DroppedPacketsInMac 0
scalar myHospitalNetwork.node[0].nic.mac1609_4 TooLittleTime 50
scalar myHospitalNetwork.node[0].nic.mac1609_4 TimesIntoBackoff 2407
scalar myHospitalNetwork.node[0].nic.mac1609_4 SlotsBackoff 2241
scalar myHospitalNetwork.node[0].nic.mac1609_4 NumInternalContention 0
scalar myHospitalNetwork.node[0].nic.mac1609_4 totalBusyTime 1.425626
scalar myHospitalNetwork.node[0].nic.mac1609_4 retriesExceeded:count 0
attr recordingmode count
attr source org_car2x_veins_modules_mac_sigRetriesExceeded
scalar myHospitalNetwork.node[0].nic.mac1609_4 sentAcks:count 0
attr recordingmode count
attr source org_car2x_veins_modules_mac_sigSentAck
scalar myHospitalNetwork.node[0].nic.mac1609_4 sentPackets:count 1482
attr recordingmode count
attr source org_car2x_veins_modules_mac_sigSentPacket
scalar myHospitalNetwork.node[0].nic.mac1609_4 collisions:count 0
attr recordingmode count
attr source org_car2x_veins_modules_mac_sigCollision
scalar myHospitalNetwork.node[0].nic.mac1609_4 channelBusy:timeavg 0.019213288409705
attr recordingmode timeavg
attr source org_car2x_veins_modules_mac_sigChannelBusy
par myHospitalNetwork.node[0].nic typename "\"org.car2x.veins.modules.nic.Nic80211p\""
par myHospitalNetwork.node[0].nic connectionManagerName "\"connectionManager\""
par myHospitalNetwork.node[0].veinsmobility typename "\"org.car2x.veins.modules.mobility.traci.TraCIMobility\""
par myHospitalNetwork.node[0].veinsmobility notAffectedByHostState true
par myHospitalNetwork.node[0].veinsmobility x 0
par myHospitalNetwork.node[0].veinsmobility y 0
par myHospitalNetwork.node[0].veinsmobility z 0
par myHospitalNetwork.node[0].veinsmobility xOrientation 1
par myHospitalNetwork.node[0].veinsmobility yOrientation 0
par myHospitalNetwork.node[0].veinsmobility zOrientation 0
par myHospitalNetwork.node[0].veinsmobility hostPositionOffset 0m
attr unit m
par myHospitalNetwork.node[0].veinsmobility setHostSpeed false
par myHospitalNetwork.node[0].veinsmobility accidentCount 0
par myHospitalNetwork.node[0].veinsmobility accidentStart 46.3465s
attr unit s
par myHospitalNetwork.node[0].veinsmobility accidentDuration "uniform(30s, 60s)"
attr unit s
par myHospitalNetwork.node[0].veinsmobility accidentInterval "uniform(30s, 60s)"
attr unit s
scalar myHospitalNetwork.node[0].veinsmobility startTime 0.1
scalar myHospitalNetwork.node[0].veinsmobility totalTime 74.1
scalar myHospitalNetwork.node[0].veinsmobility stopTime 74.3
scalar myHospitalNetwork.node[0].veinsmobility minSpeed 1.9
scalar myHospitalNetwork.node[0].veinsmobility maxSpeed 4.4652312381963
scalar myHospitalNetwork.node[0].veinsmobility totalDistance 330.11023744181
scalar myHospitalNetwork.node[0].veinsmobility totalCO2Emission 100.92431803365
par myHospitalNetwork.node[0] typename "\"org.car2x.veins.nodes.Car\""
par myHospitalNetwork.node[0] applType "\"AGVControlApp\""
par myHospitalNetwork.node[0] nicType "\"Nic80211p\""
par myHospitalNetwork.node[0] veinsmobilityType "\"org.car2x.veins.modules.mobility.traci.TraCIMobility\""
par myHospitalNetwork.node[1].appl typename "\"gr2.veins_inet.AGVControlApp\""
par myHospitalNetwork.node[1].appl headerLength 80bit
attr unit bit
par myHospitalNetwork.node[1].appl sendBeacons false
par myHospitalNetwork.node[1].appl beaconLengthBits 256bit
attr unit bit
par myHospitalNetwork.node[1].appl beaconUserPriority 7
par myHospitalNetwork.node[1].appl beaconInterval 0.1s
attr unit s
par myHospitalNetwork.node[1].appl dataLengthBits 1024bit
attr unit bit
par myHospitalNetwork.node[1].appl dataOnSch true
par myHospitalNetwork.node[1].appl dataUserPriority 7
par myHospitalNetwork.node[1].appl avoidBeaconSynchronization true
par myHospitalNetwork.node[1].appl sendWSA false
par myHospitalNetwork.node[1].appl wsaLengthBits 250bit
attr unit bit
par myHospitalNetwork.node[1].appl wsaInterval 1s
attr unit s
par myHospitalNetwork.node[1].appl appName "\"My first Veins App!\""
scalar myHospitalNetwork.node[1].appl generatedWSMs 0
scalar myHospitalNetwork.node[1].appl receivedWSMs 0
scalar myHospitalNetwork.node[1].appl generatedBSMs 732
scalar myHospitalNetwork.node[1].appl receivedBSMs 0
scalar myHospitalNetwork.node[1].appl generatedWSAs 0
scalar myHospitalNetwork.node[1].appl receivedWSAs 0
par myHospitalNetwork.node[1].nic.phy80211p typename "\"org.car2x.veins.modules.phy.PhyLayer80211p\""
par myHospitalNetwork.node[1].nic.phy80211p recordStats false
par myHospitalNetwork.node[1].nic.phy80211p usePropagationDelay true
par myHospitalNetwork.node[1].nic.phy80211p noiseFloor -98dBm
attr unit dBm
par myHospitalNetwork.node[1].nic.phy80211p useNoiseFloor true
par myHospitalNetwork.node[1].nic.phy80211p antenna "<Antenna type=\"SampledAntenna1D\" id=\"monopole\">...</Antenna> at /home/duong/Desktop/omnetpp-6.0.1/workspace/Gr2/simulations/hh//antenna.xml:35"
par myHospitalNetwork.node[1].nic.phy80211p antennaOffsetX 0m
attr unit m
par myHospitalNetwork.node[1].nic.phy80211p antennaOffsetY 0m
attr unit m
par myHospitalNetwork.node[1].nic.phy80211p antennaOffsetZ 1.895m
attr unit m
par myHospitalNetwork.node[1].nic.phy80211p antennaOffsetYaw 0rad
attr unit rad
par myHospitalNetwork.node[1].nic.phy80211p analogueModels "<root>...</root> at /home/duong/Desktop/omnetpp-6.0.1/workspace/Gr2/simulations/hh//config.xml:34"
par myHospitalNetwork.node[1].nic.phy80211p decider "<root>...</root> at /home/duong/Desktop/omnetpp-6.0.1/workspace/Gr2/simulations/hh//config.xml:34"
par myHospitalNetwork.node[1].nic.phy80211p minPowerLevel -110dBm
attr unit dBm
par myHospitalNetwork.node[1].nic.phy80211p timeRXToTX 0s
attr unit s
par myHospitalNetwork.node[1].nic.phy80211p timeRXToSleep 0s
attr unit s
par myHospitalNetwork.node[1].nic.phy80211p timeTXToRX 0s
attr unit s
par myHospitalNetwork.node[1].nic.phy80211p timeTXToSleep 0s
attr unit s
par myHospitalNetwork.node[1].nic.phy80211p timeSleepToRX 0s
attr unit s
par myHospitalNetwork.node[1].nic.phy80211p timeSleepToTX 0s
attr unit s
par myHospitalNetwork.node[1].nic.phy80211p initialRadioState 0
par myHospitalNetwork.node[1].nic.phy80211p radioMinAtt 1
par myHospitalNetwork.node[1].nic.phy80211p radioMaxAtt 0
par myHospitalNetwork.node[1].nic.phy80211p nbRadioChannels 1
par myHospitalNetwork.node[1].nic.phy80211p initialRadioChannel 0
par myHospitalNetwork.node[1].nic.phy80211p ccaThreshold -65dBm
attr unit dBm
par myHospitalNetwork.node[1].nic.phy80211p collectCollisionStatistics false
par myHospitalNetwork.node[1].nic.phy80211p allowTxDuringRx false
scalar myHospitalNetwork.node[1].nic.phy80211p busyTime 0.022992021857926
par myHospitalNetwork.node[1].nic.mac1609_4 typename "\"org.car2x.veins.modules.mac.ieee80211p.Mac1609_4\""
par myHospitalNetwork.node[1].nic.mac1609_4 notAffectedByHostState false
par myHospitalNetwork.node[1].nic.mac1609_4 headerLength 0bit
attr unit bit
par myHospitalNetwork.node[1].nic.mac1609_4 address "\"auto\""
par myHospitalNetwork.node[1].nic.mac1609_4 useServiceChannel true
par myHospitalNetwork.node[1].nic.mac1609_4 serviceChannel 1
par myHospitalNetwork.node[1].nic.mac1609_4 bitrate 6000000bps
attr unit bps
par myHospitalNetwork.node[1].nic.mac1609_4 syncOffset 0.0003s
attr unit s
par myHospitalNetwork.node[1].nic.mac1609_4 txPower 20mW
attr unit mW
par myHospitalNetwork.node[1].nic.mac1609_4 queueSize 0
par myHospitalNetwork.node[1].nic.mac1609_4 dot11RTSThreshold 12000bit
attr unit bit
par myHospitalNetwork.node[1].nic.mac1609_4 dot11ShortRetryLimit 7
par myHospitalNetwork.node[1].nic.mac1609_4 dot11LongRetryLimit 4
par myHospitalNetwork.node[1].nic.mac1609_4 ackLength 112bit
attr unit bit
par myHospitalNetwork.node[1].nic.mac1609_4 useAcks false
par myHospitalNetwork.node[1].nic.mac1609_4 frameErrorRate 0
par myHospitalNetwork.node[1].nic.mac1609_4 ackErrorRate 0
scalar myHospitalNetwork.node[1].nic.mac1609_4 ReceivedUnicastPackets 0
scalar myHospitalNetwork.node[1].nic.mac1609_4 ReceivedBroadcasts 4592
scalar myHospitalNetwork.node[1].nic.mac1609_4 SentPackets 1462
scalar myHospitalNetwork.node[1].nic.mac1609_4 SentAcknowledgements 0
scalar myHospitalNetwork.node[1].nic.mac1609_4 RetriesExceeded 0
scalar myHospitalNetwork.node[1].nic.mac1609_4 SNIRLostPackets 4905
scalar myHospitalNetwork.node[1].nic.mac1609_4 RXTXLostPackets 2600
scalar myHospitalNetwork.node[1].nic.mac1609_4 TotalLostPackets 7505
scalar myHospitalNetwork.node[1].nic.mac1609_4 DroppedPacketsInMac 0
scalar myHospitalNetwork.node[1].nic.mac1609_4 TooLittleTime 38
scalar myHospitalNetwork.node[1].nic.mac1609_4 TimesIntoBackoff 2415
scalar myHospitalNetwork.node[1].nic.mac1609_4 SlotsBackoff 2199
scalar myHospitalNetwork.node[1].nic.mac1609_4 NumInternalContention 0
scalar myHospitalNetwork.node[1].nic.mac1609_4 totalBusyTime 1.418407280749
scalar myHospitalNetwork.node[1].nic.mac1609_4 retriesExceeded:count 0
attr recordingmode count
attr source org_car2x_veins_modules_mac_sigRetriesExceeded
scalar myHospitalNetwork.node[1].nic.mac1609_4 sentAcks:count 0
attr recordingmode count
attr source org_car2x_veins_modules_mac_sigSentAck
scalar myHospitalNetwork.node[1].nic.mac1609_4 sentPackets:count 1462
attr recordingmode count
attr source org_car2x_veins_modules_mac_sigSentPacket
scalar myHospitalNetwork.node[1].nic.mac1609_4 collisions:count 0
attr recordingmode count
attr source org_car2x_veins_modules_mac_sigCollision
scalar myHospitalNetwork.node[1].nic.mac1609_4 channelBusy:timeavg 0.019377148644114
attr recordingmode timeavg
attr source org_car2x_veins_modules_mac_sigChannelBusy
par myHospitalNetwork.node[1].nic typename "\"org.car2x.veins.modules.nic.Nic80211p\""
par myHospitalNetwork.node[1].nic connectionManagerName "\"connectionManager\""
par myHospitalNetwork.node[1].veinsmobility typename "\"org.car2x.veins.modules.mobility.traci.TraCIMobility\""
par myHospitalNetwork.node[1].veinsmobility notAffectedByHostState true
par myHospitalNetwork.node[1].veinsmobility x 0
par myHospitalNetwork.node[1].veinsmobility y 0
par myHospitalNetwork.node[1].veinsmobility z 0
par myHospitalNetwork.node[1].veinsmobility xOrientation 1
par myHospitalNetwork.node[1].veinsmobility yOrientation 0
par myHospitalNetwork.node[1].veinsmobility zOrientation 0
par myHospitalNetwork.node[1].veinsmobility hostPositionOffset 0m
attr unit m
par myHospitalNetwork.node[1].veinsmobility setHostSpeed false
par myHospitalNetwork.node[1].veinsmobility accidentCount 0
par myHospitalNetwork.node[1].veinsmobility accidentStart 59.1583s
attr unit s
par myHospitalNetwork.node[1].veinsmobility accidentDuration "uniform(30s, 60s)"
attr unit s
par myHospitalNetwork.node[1].veinsmobility accidentInterval "uniform(30s, 60s)"
attr unit s
scalar myHospitalNetwork.node[1].veinsmobility startTime 1.1
scalar myHospitalNetwork.node[1].veinsmobility totalTime 73.1
scalar myHospitalNetwork.node[1].veinsmobility stopTime 74.3
scalar myHospitalNetwork.node[1].veinsmobility minSpeed 1.9
scalar myHospitalNetwork.node[1].veinsmobility maxSpeed 3.1927084677529
scalar myHospitalNetwork.node[1].veinsmobility totalDistance 233.01389359112
scalar myHospitalNetwork.node[1].veinsmobility totalCO2Emission 93.415290844592
par myHospitalNetwork.node[1] typename "\"org.car2x.veins.nodes.Car\""
par myHospitalNetwork.node[1] applType "\"AGVControlApp\""
par myHospitalNetwork.node[1] nicType "\"Nic80211p\""
par myHospitalNetwork.node[1] veinsmobilityType "\"org.car2x.veins.modules.mobility.traci.TraCIMobility\""
par myHospitalNetwork.node[2].appl typename "\"gr2.veins_inet.AGVControlApp\""
par myHospitalNetwork.node[2].appl headerLength 80bit
attr unit bit
par myHospitalNetwork.node[2].appl sendBeacons false
par myHospitalNetwork.node[2].appl beaconLengthBits 256bit
attr unit bit
par myHospitalNetwork.node[2].appl beaconUserPriority 7
par myHospitalNetwork.node[2].appl beaconInterval 0.1s
attr unit s
par myHospitalNetwork.node[2].appl dataLengthBits 1024bit
attr unit bit
par myHospitalNetwork.node[2].appl dataOnSch true
par myHospitalNetwork.node[2].appl dataUserPriority 7
par myHospitalNetwork.node[2].appl avoidBeaconSynchronization true
par myHospitalNetwork.node[2].appl sendWSA false
par myHospitalNetwork.node[2].appl wsaLengthBits 250bit
attr unit bit
par myHospitalNetwork.node[2].appl wsaInterval 1s
attr unit s
par myHospitalNetwork.node[2].appl appName "\"My first Veins App!\""
scalar myHospitalNetwork.node[2].appl generatedWSMs 0
scalar myHospitalNetwork.node[2].appl receivedWSMs 0
scalar myHospitalNetwork.node[2].appl generatedBSMs 722
scalar myHospitalNetwork.node[2].appl receivedBSMs 0
scalar myHospitalNetwork.node[2].appl generatedWSAs 0
scalar myHospitalNetwork.node[2].appl receivedWSAs 0
par myHospitalNetwork.node[2].nic.phy80211p typename "\"org.car2x.veins.modules.phy.PhyLayer80211p\""
par myHospitalNetwork.node[2].nic.phy80211p recordStats false
par myHospitalNetwork.node[2].nic.phy80211p usePropagationDelay true
par myHospitalNetwork.node[2].nic.phy80211p noiseFloor -98dBm
attr unit dBm
par myHospitalNetwork.node[2].nic.phy80211p useNoiseFloor true
par myHospitalNetwork.node[2].nic.phy80211p antenna "<Antenna type=\"SampledAntenna1D\" id=\"monopole\">...</Antenna> at /home/duong/Desktop/omnetpp-6.0.1/workspace/Gr2/simulations/hh//antenna.xml:35"
par myHospitalNetwork.node[2].nic.phy80211p antennaOffsetX 0m
attr unit m
par myHospitalNetwork.node[2].nic.phy80211p antennaOffsetY 0m
attr unit m
par myHospitalNetwork.node[2].nic.phy80211p antennaOffsetZ 1.895m
attr unit m
par myHospitalNetwork.node[2].nic.phy80211p antennaOffsetYaw 0rad
attr unit rad
par myHospitalNetwork.node[2].nic.phy80211p analogueModels "<root>...</root> at /home/duong/Desktop/omnetpp-6.0.1/workspace/Gr2/simulations/hh//config.xml:34"
par myHospitalNetwork.node[2].nic.phy80211p decider "<root>...</root> at /home/duong/Desktop/omnetpp-6.0.1/workspace/Gr2/simulations/hh//config.xml:34"
par myHospitalNetwork.node[2].nic.phy80211p minPowerLevel -110dBm
attr unit dBm
par myHospitalNetwork.node[2].nic.phy80211p timeRXToTX 0s
attr unit s
par myHospitalNetwork.node[2].nic.phy80211p timeRXToSleep 0s
attr unit s
par myHospitalNetwork.node[2].nic.phy80211p timeTXToRX 0s
attr unit s
par myHospitalNetwork.node[2].nic.phy80211p timeTXToSleep 0s
attr unit s
par myHospitalNetwork.node[2].nic.phy80211p timeSleepToRX 0s
attr unit s
par myHospitalNetwork.node[2].nic.phy80211p timeSleepToTX 0s
attr unit s
par myHospitalNetwork.node[2].nic.phy80211p initialRadioState 0
par myHospitalNetwork.node[2].nic.phy80211p radioMinAtt 1
par myHospitalNetwork.node[2].nic.phy80211p radioMaxAtt 0
par myHospitalNetwork.node[2].nic.phy80211p nbRadioChannels 1
par myHospitalNetwork.node[2].nic.phy80211p initialRadioChannel 0
par myHospitalNetwork.node[2].nic.phy80211p ccaThreshold -65dBm
attr unit dBm
par myHospitalNetwork.node[2].nic.phy80211p collectCollisionStatistics false
par myHospitalNetwork.node[2].nic.phy80211p allowTxDuringRx false
scalar myHospitalNetwork.node[2].nic.phy80211p busyTime 0.026110692520779
par myHospitalNetwork.node[2].nic.mac1609_4 typename "\"org.car2x.veins.modules.mac.ieee80211p.Mac1609_4\""
par myHospitalNetwork.node[2].nic.mac1609_4 notAffectedByHostState false
par myHospitalNetwork.node[2].nic.mac1609_4 headerLength 0bit
attr unit bit
par myHospitalNetwork.node[2].nic.mac1609_4 address "\"auto\""
par myHospitalNetwork.node[2].nic.mac1609_4 useServiceChannel true
par myHospitalNetwork.node[2].nic.mac1609_4 serviceChannel 1
par myHospitalNetwork.node[2].nic.mac1609_4 bitrate 6000000bps
attr unit bps
par myHospitalNetwork.node[2].nic.mac1609_4 syncOffset 0.0003s
attr unit s
par myHospitalNetwork.node[2].nic.mac1609_4 txPower 20mW
attr unit mW
par myHospitalNetwork.node[2].nic.mac1609_4 queueSize 0
par myHospitalNetwork.node[2].nic.mac1609_4 dot11RTSThreshold 12000bit
attr unit bit
par myHospitalNetwork.node[2].nic.mac1609_4 dot11ShortRetryLimit 7
par myHospitalNetwork.node[2].nic.mac1609_4 dot11LongRetryLimit 4
par myHospitalNetwork.node[2].nic.mac1609_4 ackLength 112bit
attr unit bit
par myHospitalNetwork.node[2].nic.mac1609_4 useAcks false
par myHospitalNetwork.node[2].nic.mac1609_4 frameErrorRate 0
par myHospitalNetwork.node[2].nic.mac1609_4 ackErrorRate 0
scalar myHospitalNetwork.node[2].nic.mac1609_4 ReceivedUnicastPackets 0
scalar myHospitalNetwork.node[2].nic.mac1609_4 ReceivedBroadcasts 3864
scalar myHospitalNetwork.node[2].nic.mac1609_4 SentPackets 1442
scalar myHospitalNetwork.node[2].nic.mac1609_4 SentAcknowledgements 0
scalar myHospitalNetwork.node[2].nic.mac1609_4 RetriesExceeded 0
scalar myHospitalNetwork.node[2].nic.mac1609_4 SNIRLostPackets 6664
scalar myHospitalNetwork.node[2].nic.mac1609_4 RXTXLostPackets 1550
scalar myHospitalNetwork.node[2].nic.mac1609_4 TotalLostPackets 8214
scalar myHospitalNetwork.node[2].nic.mac1609_4 DroppedPacketsInMac 0
scalar myHospitalNetwork.node[2].nic.mac1609_4 TooLittleTime 583
scalar myHospitalNetwork.node[2].nic.mac1609_4 TimesIntoBackoff 2884
scalar myHospitalNetwork.node[2].nic.mac1609_4 SlotsBackoff 2129
scalar myHospitalNetwork.node[2].nic.mac1609_4 NumInternalContention 0
scalar myHospitalNetwork.node[2].nic.mac1609_4 totalBusyTime 1.353659240864
scalar myHospitalNetwork.node[2].nic.mac1609_4 retriesExceeded:count 0
attr recordingmode count
attr source org_car2x_veins_modules_mac_sigRetriesExceeded
scalar myHospitalNetwork.node[2].nic.mac1609_4 sentAcks:count 0
attr recordingmode count
attr source org_car2x_veins_modules_mac_sigSentAck
scalar myHospitalNetwork.node[2].nic.mac1609_4 sentPackets:count 1442
attr recordingmode count
attr source org_car2x_veins_modules_mac_sigSentPacket
scalar myHospitalNetwork.node[2].nic.mac1609_4 collisions:count 0
attr recordingmode count
attr source org_car2x_veins_modules_mac_sigCollision
scalar myHospitalNetwork.node[2].nic.mac1609_4 channelBusy:timeavg 0.018748742948256
attr recordingmode timeavg
attr source org_car2x_veins_modules_mac_sigChannelBusy
par myHospitalNetwork.node[2].nic typename "\"org.car2x.veins.modules.nic.Nic80211p\""
par myHospitalNetwork.node[2].nic connectionManagerName "\"connectionManager\""
par myHospitalNetwork.node[2].veinsmobility typename "\"org.car2x.veins.modules.mobility.traci.TraCIMobility\""
par myHospitalNetwork.node[2].veinsmobility notAffectedByHostState true
par myHospitalNetwork.node[2].veinsmobility x 0
par myHospitalNetwork.node[2].veinsmobility y 0
par myHospitalNetwork.node[2].veinsmobility z 0
par myHospitalNetwork.node[2].veinsmobility xOrientation 1
par myHospitalNetwork.node[2].veinsmobility yOrientation 0
par myHospitalNetwork.node[2].veinsmobility zOrientation 0
par myHospitalNetwork.node[2].veinsmobility hostPositionOffset 0m
attr unit m
par myHospitalNetwork.node[2].veinsmobility setHostSpeed false
par myHospitalNetwork.node[2].veinsmobility accidentCount 0
par myHospitalNetwork.node[2].veinsmobility accidentStart 45.6311s
attr unit s
par myHospitalNetwork.node[2].veinsmobility accidentDuration "uniform(30s, 60s)"
attr unit s
par myHospitalNetwork.node[2].veinsmobility accidentInterval "uniform(30s, 60s)"
attr unit s
scalar myHospitalNetwork.node[2].veinsmobility startTime 2.1
scalar myHospitalNetwork.node[2].veinsmobility totalTime 72.1
scalar myHospitalNetwork.node[2].veinsmobility stopTime 74.3
scalar myHospitalNetwork.node[2].veinsmobility minSpeed 1.9
scalar myHospitalNetwork.node[2].veinsmobility maxSpeed 4.7413688521504
scalar myHospitalNetwork.node[2].veinsmobility totalDistance 341.09247927077
scalar myHospitalNetwork.node[2].veinsmobility totalCO2Emission 99.683122233439
par myHospitalNetwork.node[2] typename "\"org.car2x.veins.nodes.Car\""
par myHospitalNetwork.node[2] applType "\"AGVControlApp\""
par myHospitalNetwork.node[2] nicType "\"Nic80211p\""
par myHospitalNetwork.node[2] veinsmobilityType "\"org.car2x.veins.modules.mobility.traci.TraCIMobility\""
par myHospitalNetwork.node[3].appl typename "\"gr2.veins_inet.AGVControlApp\""
par myHospitalNetwork.node[3].appl headerLength 80bit
attr unit bit
par myHospitalNetwork.node[3].appl sendBeacons false
par myHospitalNetwork.node[3].appl beaconLengthBits 256bit
attr unit bit
par myHospitalNetwork.node[3].appl beaconUserPriority 7
par myHospitalNetwork.node[3].appl beaconInterval 0.1s
attr unit s
par myHospitalNetwork.node[3].appl dataLengthBits 1024bit
attr unit bit
par myHospitalNetwork.node[3].appl dataOnSch true
par myHospitalNetwork.node[3].appl dataUserPriority 7
par myHospitalNetwork.node[3].appl avoidBeaconSynchronization true
par myHospitalNetwork.node[3].appl sendWSA false
par myHospitalNetwork.node[3].appl wsaLengthBits 250bit
attr unit bit
par myHospitalNetwork.node[3].appl wsaInterval 1s
attr unit s
par myHospitalNetwork.node[3].appl appName "\"My first Veins App!\""
scalar myHospitalNetwork.node[3].appl generatedWSMs 0
scalar myHospitalNetwork.node[3].appl receivedWSMs 0
scalar myHospitalNetwork.node[3].appl generatedBSMs 722
scalar myHospitalNetwork.node[3].appl receivedBSMs 0
scalar myHospitalNetwork.node[3].appl generatedWSAs 0
scalar myHospitalNetwork.node[3].appl receivedWSAs 0
par myHospitalNetwork.node[3].nic.phy80211p typename "\"org.car2x.veins.modules.phy.PhyLayer80211p\""
par myHospitalNetwork.node[3].nic.phy80211p recordStats false
par myHospitalNetwork.node[3].nic.phy80211p usePropagationDelay true
par myHospitalNetwork.node[3].nic.phy80211p noiseFloor -98dBm
attr unit dBm
par myHospitalNetwork.node[3].nic.phy80211p useNoiseFloor true
par myHospitalNetwork.node[3].nic.phy80211p antenna "<Antenna type=\"SampledAntenna1D\" id=\"monopole\">...</Antenna> at /home/duong/Desktop/omnetpp-6.0.1/workspace/Gr2/simulations/hh//antenna.xml:35"
par myHospitalNetwork.node[3].nic.phy80211p antennaOffsetX 0m
attr unit m
par myHospitalNetwork.node[3].nic.phy80211p antennaOffsetY 0m
attr unit m
par myHospitalNetwork.node[3].nic.phy80211p antennaOffsetZ 1.895m
attr unit m
par myHospitalNetwork.node[3].nic.phy80211p antennaOffsetYaw 0rad
attr unit rad
par myHospitalNetwork.node[3].nic.phy80211p analogueModels "<root>...</root> at /home/duong/Desktop/omnetpp-6.0.1/workspace/Gr2/simulations/hh//config.xml:34"
par myHospitalNetwork.node[3].nic.phy80211p decider "<root>...</root> at /home/duong/Desktop/omnetpp-6.0.1/workspace/Gr2/simulations/hh//config.xml:34"
par myHospitalNetwork.node[3].nic.phy80211p minPowerLevel -110dBm
attr unit dBm
par myHospitalNetwork.node[3].nic.phy80211p timeRXToTX 0s
attr unit s
par myHospitalNetwork.node[3].nic.phy80211p timeRXToSleep 0s
attr unit s
par myHospitalNetwork.node[3].nic.phy80211p timeTXToRX 0s
attr unit s
par myHospitalNetwork.node[3].nic.phy80211p timeTXToSleep 0s
attr unit s
par myHospitalNetwork.node[3].nic.phy80211p timeSleepToRX 0s
attr unit s
par myHospitalNetwork.node[3].nic.phy80211p timeSleepToTX 0s
attr unit s
par myHospitalNetwork.node[3].nic.phy80211p initialRadioState 0
par myHospitalNetwork.node[3].nic.phy80211p radioMinAtt 1
par myHospitalNetwork.node[3].nic.phy80211p radioMaxAtt 0
par myHospitalNetwork.node[3].nic.phy80211p nbRadioChannels 1
par myHospitalNetwork.node[3].nic.phy80211p initialRadioChannel 0
par myHospitalNetwork.node[3].nic.phy80211p ccaThreshold -65dBm
attr unit dBm
par myHospitalNetwork.node[3].nic.phy80211p collectCollisionStatistics false
par myHospitalNetwork.node[3].nic.phy80211p allowTxDuringRx false
scalar myHospitalNetwork.node[3].nic.phy80211p busyTime 0.024441440443217
par myHospitalNetwork.node[3].nic.mac1609_4 typename "\"org.car2x.veins.modules.mac.ieee80211p.Mac1609_4\""
par myHospitalNetwork.node[3].nic.mac1609_4 notAffectedByHostState false
par myHospitalNetwork.node[3].nic.mac1609_4 headerLength 0bit
attr unit bit
par myHospitalNetwork.node[3].nic.mac1609_4 address "\"auto\""
par myHospitalNetwork.node[3].nic.mac1609_4 useServiceChannel true
par myHospitalNetwork.node[3].nic.mac1609_4 serviceChannel 1
par myHospitalNetwork.node[3].nic.mac1609_4 bitrate 6000000bps
attr unit bps
par myHospitalNetwork.node[3].nic.mac1609_4 syncOffset 0.0003s
attr unit s
par myHospitalNetwork.node[3].nic.mac1609_4 txPower 20mW
attr unit mW
par myHospitalNetwork.node[3].nic.mac1609_4 queueSize 0
par myHospitalNetwork.node[3].nic.mac1609_4 dot11RTSThreshold 12000bit
attr unit bit
par myHospitalNetwork.node[3].nic.mac1609_4 dot11ShortRetryLimit 7
par myHospitalNetwork.node[3].nic.mac1609_4 dot11LongRetryLimit 4
par myHospitalNetwork.node[3].nic.mac1609_4 ackLength 112bit
attr unit bit
par myHospitalNetwork.node[3].nic.mac1609_4 useAcks false
par myHospitalNetwork.node[3].nic.mac1609_4 frameErrorRate 0
par myHospitalNetwork.node[3].nic.mac1609_4 ackErrorRate 0
scalar myHospitalNetwork.node[3].nic.mac1609_4 ReceivedUnicastPackets 0
scalar myHospitalNetwork.node[3].nic.mac1609_4 ReceivedBroadcasts 4285
scalar myHospitalNetwork.node[3].nic.mac1609_4 SentPackets 1442
scalar myHospitalNetwork.node[3].nic.mac1609_4 SentAcknowledgements 0
scalar myHospitalNetwork.node[3].nic.mac1609_4 RetriesExceeded 0
scalar myHospitalNetwork.node[3].nic.mac1609_4 SNIRLostPackets 5549
scalar myHospitalNetwork.node[3].nic.mac1609_4 RXTXLostPackets 2244
scalar myHospitalNetwork.node[3].nic.mac1609_4 TotalLostPackets 7793
scalar myHospitalNetwork.node[3].nic.mac1609_4 DroppedPacketsInMac 0
scalar myHospitalNetwork.node[3].nic.mac1609_4 TooLittleTime 490
scalar myHospitalNetwork.node[3].nic.mac1609_4 TimesIntoBackoff 2786
scalar myHospitalNetwork.node[3].nic.mac1609_4 SlotsBackoff 2204
scalar myHospitalNetwork.node[3].nic.mac1609_4 NumInternalContention 0
scalar myHospitalNetwork.node[3].nic.mac1609_4 totalBusyTime 1.410055436682
scalar myHospitalNetwork.node[3].nic.mac1609_4 retriesExceeded:count 0
attr recordingmode count
attr source org_car2x_veins_modules_mac_sigRetriesExceeded
scalar myHospitalNetwork.node[3].nic.mac1609_4 sentAcks:count 0
attr recordingmode count
attr source org_car2x_veins_modules_mac_sigSentAck
scalar myHospitalNetwork.node[3].nic.mac1609_4 sentPackets:count 1442
attr recordingmode count
attr source org_car2x_veins_modules_mac_sigSentPacket
scalar myHospitalNetwork.node[3].nic.mac1609_4 collisions:count 0
attr recordingmode count
attr source org_car2x_veins_modules_mac_sigCollision
scalar myHospitalNetwork.node[3].nic.mac1609_4 channelBusy:timeavg 0.019529853693658
attr recordingmode timeavg
attr source org_car2x_veins_modules_mac_sigChannelBusy
par myHospitalNetwork.node[3].nic typename "\"org.car2x.veins.modules.nic.Nic80211p\""
par myHospitalNetwork.node[3].nic connectionManagerName "\"connectionManager\""
par myHospitalNetwork.node[3].veinsmobility typename "\"org.car2x.veins.modules.mobility.traci.TraCIMobility\""
par myHospitalNetwork.node[3].veinsmobility notAffectedByHostState true
par myHospitalNetwork.node[3].veinsmobility x 0
par myHospitalNetwork.node[3].veinsmobility y 0
par myHospitalNetwork.node[3].veinsmobility z 0
par myHospitalNetwork.node[3].veinsmobility xOrientation 1
par myHospitalNetwork.node[3].veinsmobility yOrientation 0
par myHospitalNetwork.node[3].veinsmobility zOrientation 0
par myHospitalNetwork.node[3].veinsmobility hostPositionOffset 0m
attr unit m
par myHospitalNetwork.node[3].veinsmobility setHostSpeed false
par myHospitalNetwork.node[3].veinsmobility accidentCount 0
par myHospitalNetwork.node[3].veinsmobility accidentStart 35.1296s
attr unit s
par myHospitalNetwork.node[3].veinsmobility accidentDuration "uniform(30s, 60s)"
attr unit s
par myHospitalNetwork.node[3].veinsmobility accidentInterval "uniform(30s, 60s)"
attr unit s
scalar myHospitalNetwork.node[3].veinsmobility startTime 2.1
scalar myHospitalNetwork.node[3].veinsmobility totalTime 72.1
scalar myHospitalNetwork.node[3].veinsmobility stopTime 74.3
scalar myHospitalNetwork.node[3].veinsmobility minSpeed 1.9
scalar myHospitalNetwork.node[3].veinsmobility maxSpeed 3.7541874046292
scalar myHospitalNetwork.node[3].veinsmobility totalDistance 270.2405547186
scalar myHospitalNetwork.node[3].veinsmobility totalCO2Emission 94.778621187931
par myHospitalNetwork.node[3] typename "\"org.car2x.veins.nodes.Car\""
par myHospitalNetwork.node[3] applType "\"AGVControlApp\""
par myHospitalNetwork.node[3] nicType "\"Nic80211p\""
par myHospitalNetwork.node[3] veinsmobilityType "\"org.car2x.veins.modules.mobility.traci.TraCIMobility\""
par myHospitalNetwork.node[4].appl typename "\"gr2.veins_inet.AGVControlApp\""
par myHospitalNetwork.node[4].appl headerLength 80bit
attr unit bit
par myHospitalNetwork.node[4].appl sendBeacons false
par myHospitalNetwork.node[4].appl beaconLengthBits 256bit
attr unit bit
par myHospitalNetwork.node[4].appl beaconUserPriority 7
par myHospitalNetwork.node[4].appl beaconInterval 0.1s
attr unit s
par myHospitalNetwork.node[4].appl dataLengthBits 1024bit
attr unit bit
par myHospitalNetwork.node[4].appl dataOnSch true
par myHospitalNetwork.node[4].appl dataUserPriority 7
par myHospitalNetwork.node[4].appl avoidBeaconSynchronization true
par myHospitalNetwork.node[4].appl sendWSA false
par myHospitalNetwork.node[4].appl wsaLengthBits 250bit
attr unit bit
par myHospitalNetwork.node[4].appl wsaInterval 1s
attr unit s
par myHospitalNetwork.node[4].appl appName "\"My first Veins App!\""
scalar myHospitalNetwork.node[4].appl generatedWSMs 0
scalar myHospitalNetwork.node[4].appl receivedWSMs 0
scalar myHospitalNetwork.node[4].appl generatedBSMs 662
scalar myHospitalNetwork.node[4].appl receivedBSMs 0
scalar myHospitalNetwork.node[4].appl generatedWSAs 0
scalar myHospitalNetwork.node[4].appl receivedWSAs 0
par myHospitalNetwork.node[4].nic.phy80211p typename "\"org.car2x.veins.modules.phy.PhyLayer80211p\""
par myHospitalNetwork.node[4].nic.phy80211p recordStats false
par myHospitalNetwork.node[4].nic.phy80211p usePropagationDelay true
par myHospitalNetwork.node[4].nic.phy80211p noiseFloor -98dBm
attr unit dBm
par myHospitalNetwork.node[4].nic.phy80211p useNoiseFloor true
par myHospitalNetwork.node[4].nic.phy80211p antenna "<Antenna type=\"SampledAntenna1D\" id=\"monopole\">...</Antenna> at /home/duong/Desktop/omnetpp-6.0.1/workspace/Gr2/simulations/hh//antenna.xml:35"
par myHospitalNetwork.node[4].nic.phy80211p antennaOffsetX 0m
attr unit m
par myHospitalNetwork.node[4].nic.phy80211p antennaOffsetY 0m
attr unit m
par myHospitalNetwork.node[4].nic.phy80211p antennaOffsetZ 1.895m
attr unit m
par myHospitalNetwork.node[4].nic.phy80211p antennaOffsetYaw 0rad
attr unit rad
par myHospitalNetwork.node[4].nic.phy80211p analogueModels "<root>...</root> at /home/duong/Desktop/omnetpp-6.0.1/workspace/Gr2/simulations/hh//config.xml:34"
par myHospitalNetwork.node[4].nic.phy80211p decider "<root>...</root> at /home/duong/Desktop/omnetpp-6.0.1/workspace/Gr2/simulations/hh//config.xml:34"
par myHospitalNetwork.node[4].nic.phy80211p minPowerLevel -110dBm
attr unit dBm
par myHospitalNetwork.node[4].nic.phy80211p timeRXToTX 0s
attr unit s
par myHospitalNetwork.node[4].nic.phy80211p timeRXToSleep 0s
attr unit s
par myHospitalNetwork.node[4].nic.phy80211p timeTXToRX 0s
attr unit s
par myHospitalNetwork.node[4].nic.phy80211p timeTXToSleep 0s
attr unit s
par myHospitalNetwork.node[4].nic.phy80211p timeSleepToRX 0s
attr unit s
par myHospitalNetwork.node[4].nic.phy80211p timeSleepToTX 0s
attr unit s
par myHospitalNetwork.node[4].nic.phy80211p initialRadioState 0
par myHospitalNetwork.node[4].nic.phy80211p radioMinAtt 1
par myHospitalNetwork.node[4].nic.phy80211p radioMaxAtt 0
par myHospitalNetwork.node[4].nic.phy80211p nbRadioChannels 1
par myHospitalNetwork.node[4].nic.phy80211p initialRadioChannel 0
par myHospitalNetwork.node[4].nic.phy80211p ccaThreshold -65dBm
attr unit dBm
par myHospitalNetwork.node[4].nic.phy80211p collectCollisionStatistics false
par myHospitalNetwork.node[4].nic.phy80211p allowTxDuringRx false
scalar myHospitalNetwork.node[4].nic.phy80211p busyTime 0.028651238670699
par myHospitalNetwork.node[4].nic.mac1609_4 typename "\"org.car2x.veins.modules.mac.ieee80211p.Mac1609_4\""
par myHospitalNetwork.node[4].nic.mac1609_4 notAffectedByHostState false
par myHospitalNetwork.node[4].nic.mac1609_4 headerLength 0bit
attr unit bit
par myHospitalNetwork.node[4].nic.mac1609_4 address "\"auto\""
par myHospitalNetwork.node[4].nic.mac1609_4 useServiceChannel true
par myHospitalNetwork.node[4].nic.mac1609_4 serviceChannel 1
par myHospitalNetwork.node[4].nic.mac1609_4 bitrate 6000000bps
attr unit bps
par myHospitalNetwork.node[4].nic.mac1609_4 syncOffset 0.0003s
attr unit s
par myHospitalNetwork.node[4].nic.mac1609_4 txPower 20mW
attr unit mW
par myHospitalNetwork.node[4].nic.mac1609_4 queueSize 0
par myHospitalNetwork.node[4].nic.mac1609_4 dot11RTSThreshold 12000bit
attr unit bit
par myHospitalNetwork.node[4].nic.mac1609_4 dot11ShortRetryLimit 7
par myHospitalNetwork.node[4].nic.mac1609_4 dot11LongRetryLimit 4
par myHospitalNetwork.node[4].nic.mac1609_4 ackLength 112bit
attr unit bit
par myHospitalNetwork.node[4].nic.mac1609_4 useAcks false
par myHospitalNetwork.node[4].nic.mac1609_4 frameErrorRate 0
par myHospitalNetwork.node[4].nic.mac1609_4 ackErrorRate 0
scalar myHospitalNetwork.node[4].nic.mac1609_4 ReceivedUnicastPackets 0
scalar myHospitalNetwork.node[4].nic.mac1609_4 ReceivedBroadcasts 4073
scalar myHospitalNetwork.node[4].nic.mac1609_4 SentPackets 1322
scalar myHospitalNetwork.node[4].nic.mac1609_4 SentAcknowledgements 0
scalar myHospitalNetwork.node[4].nic.mac1609_4 RetriesExceeded 0
scalar myHospitalNetwork.node[4].nic.mac1609_4 SNIRLostPackets 6559
scalar myHospitalNetwork.node[4].nic.mac1609_4 RXTXLostPackets 1003
scalar myHospitalNetwork.node[4].nic.mac1609_4 TotalLostPackets 7562
scalar myHospitalNetwork.node[4].nic.mac1609_4 DroppedPacketsInMac 0
scalar myHospitalNetwork.node[4].nic.mac1609_4 TooLittleTime 1222
scalar myHospitalNetwork.node[4].nic.mac1609_4 TimesIntoBackoff 2644
scalar myHospitalNetwork.node[4].nic.mac1609_4 SlotsBackoff 1893
scalar myHospitalNetwork.node[4].nic.mac1609_4 NumInternalContention 0
scalar myHospitalNetwork.node[4].nic.mac1609_4 totalBusyTime 1.233876317132
scalar myHospitalNetwork.node[4].nic.mac1609_4 retriesExceeded:count 0
attr recordingmode count
attr source org_car2x_veins_modules_mac_sigRetriesExceeded
scalar myHospitalNetwork.node[4].nic.mac1609_4 sentAcks:count 0
attr recordingmode count
attr source org_car2x_veins_modules_mac_sigSentAck
scalar myHospitalNetwork.node[4].nic.mac1609_4 sentPackets:count 1322
attr recordingmode count
attr source org_car2x_veins_modules_mac_sigSentPacket
scalar myHospitalNetwork.node[4].nic.mac1609_4 collisions:count 0
attr recordingmode count
attr source org_car2x_veins_modules_mac_sigCollision
scalar myHospitalNetwork.node[4].nic.mac1609_4 channelBusy:timeavg 0.018638615062418
attr recordingmode timeavg
attr source org_car2x_veins_modules_mac_sigChannelBusy
par myHospitalNetwork.node[4].nic typename "\"org.car2x.veins.modules.nic.Nic80211p\""
par myHospitalNetwork.node[4].nic connectionManagerName "\"connectionManager\""
par myHospitalNetwork.node[4].veinsmobility typename "\"org.car2x.veins.modules.mobility.traci.TraCIMobility\""
par myHospitalNetwork.node[4].veinsmobility notAffectedByHostState true
par myHospitalNetwork.node[4].veinsmobility x 0
par myHospitalNetwork.node[4].veinsmobility y 0
par myHospitalNetwork.node[4].veinsmobility z 0
par myHospitalNetwork.node[4].veinsmobility xOrientation 1
par myHospitalNetwork.node[4].veinsmobility yOrientation 0
par myHospitalNetwork.node[4].veinsmobility zOrientation 0
par myHospitalNetwork.node[4].veinsmobility hostPositionOffset 0m
attr unit m
par myHospitalNetwork.node[4].veinsmobility setHostSpeed false
par myHospitalNetwork.node[4].veinsmobility accidentCount 0
par myHospitalNetwork.node[4].veinsmobility accidentStart 43.28s
attr unit s
par myHospitalNetwork.node[4].veinsmobility accidentDuration "uniform(30s, 60s)"
attr unit s
par myHospitalNetwork.node[4].veinsmobility accidentInterval "uniform(30s, 60s)"
attr unit s
scalar myHospitalNetwork.node[4].veinsmobility startTime 8.1
scalar myHospitalNetwork.node[4].veinsmobility totalTime 66.1
scalar myHospitalNetwork.node[4].veinsmobility stopTime 74.3
scalar myHospitalNetwork.node[4].veinsmobility minSpeed 1.9
scalar myHospitalNetwork.node[4].veinsmobility maxSpeed 4.4679467132371
scalar myHospitalNetwork.node[4].veinsmobility totalDistance 294.66939794655
scalar myHospitalNetwork.node[4].veinsmobility totalCO2Emission 90.268201953844
par myHospitalNetwork.node[4] typename "\"org.car2x.veins.nodes.Car\""
par myHospitalNetwork.node[4] applType "\"AGVControlApp\""
par myHospitalNetwork.node[4] nicType "\"Nic80211p\""
par myHospitalNetwork.node[4] veinsmobilityType "\"org.car2x.veins.modules.mobility.traci.TraCIMobility\""
par myHospitalNetwork.node[5].appl typename "\"gr2.veins_inet.AGVControlApp\""
par myHospitalNetwork.node[5].appl headerLength 80bit
attr unit bit
par myHospitalNetwork.node[5].appl sendBeacons false
par myHospitalNetwork.node[5].appl beaconLengthBits 256bit
attr unit bit
par myHospitalNetwork.node[5].appl beaconUserPriority 7
par myHospitalNetwork.node[5].appl beaconInterval 0.1s
attr unit s
par myHospitalNetwork.node[5].appl dataLengthBits 1024bit
attr unit bit
par myHospitalNetwork.node[5].appl dataOnSch true
par myHospitalNetwork.node[5].appl dataUserPriority 7
par myHospitalNetwork.node[5].appl avoidBeaconSynchronization true
par myHospitalNetwork.node[5].appl sendWSA false
par myHospitalNetwork.node[5].appl wsaLengthBits 250bit
attr unit bit
par myHospitalNetwork.node[5].appl wsaInterval 1s
attr unit s
par myHospitalNetwork.node[5].appl appName "\"My first Veins App!\""
scalar myHospitalNetwork.node[5].appl generatedWSMs 0
scalar myHospitalNetwork.node[5].appl receivedWSMs 0
scalar myHospitalNetwork.node[5].appl generatedBSMs 661
scalar myHospitalNetwork.node[5].appl receivedBSMs 0
scalar myHospitalNetwork.node[5].appl generatedWSAs 0
scalar myHospitalNetwork.node[5].appl receivedWSAs 0
par myHospitalNetwork.node[5].nic.phy80211p typename "\"org.car2x.veins.modules.phy.PhyLayer80211p\""
par myHospitalNetwork.node[5].nic.phy80211p recordStats false
par myHospitalNetwork.node[5].nic.phy80211p usePropagationDelay true
par myHospitalNetwork.node[5].nic.phy80211p noiseFloor -98dBm
attr unit dBm
par myHospitalNetwork.node[5].nic.phy80211p useNoiseFloor true
par myHospitalNetwork.node[5].nic.phy80211p antenna "<Antenna type=\"SampledAntenna1D\" id=\"monopole\">...</Antenna> at /home/duong/Desktop/omnetpp-6.0.1/workspace/Gr2/simulations/hh//antenna.xml:35"
par myHospitalNetwork.node[5].nic.phy80211p antennaOffsetX 0m
attr unit m
par myHospitalNetwork.node[5].nic.phy80211p antennaOffsetY 0m
attr unit m
par myHospitalNetwork.node[5].nic.phy80211p antennaOffsetZ 1.895m
attr unit m
par myHospitalNetwork.node[5].nic.phy80211p antennaOffsetYaw 0rad
attr unit rad
par myHospitalNetwork.node[5].nic.phy80211p analogueModels "<root>...</root> at /home/duong/Desktop/omnetpp-6.0.1/workspace/Gr2/simulations/hh//config.xml:34"
par myHospitalNetwork.node[5].nic.phy80211p decider "<root>...</root> at /home/duong/Desktop/omnetpp-6.0.1/workspace/Gr2/simulations/hh//config.xml:34"
par myHospitalNetwork.node[5].nic.phy80211p minPowerLevel -110dBm
attr unit dBm
par myHospitalNetwork.node[5].nic.phy80211p timeRXToTX 0s
attr unit s
par myHospitalNetwork.node[5].nic.phy80211p timeRXToSleep 0s
attr unit s
par myHospitalNetwork.node[5].nic.phy80211p timeTXToRX 0s
attr unit s
par myHospitalNetwork.node[5].nic.phy80211p timeTXToSleep 0s
attr unit s
par myHospitalNetwork.node[5].nic.phy80211p timeSleepToRX 0s
attr unit s
par myHospitalNetwork.node[5].nic.phy80211p timeSleepToTX 0s
attr unit s
par myHospitalNetwork.node[5].nic.phy80211p initialRadioState 0
par myHospitalNetwork.node[5].nic.phy80211p radioMinAtt 1
par myHospitalNetwork.node[5].nic.phy80211p radioMaxAtt 0
par myHospitalNetwork.node[5].nic.phy80211p nbRadioChannels 1
par myHospitalNetwork.node[5].nic.phy80211p initialRadioChannel 0
par myHospitalNetwork.node[5].nic.phy80211p ccaThreshold -65dBm
attr unit dBm
par myHospitalNetwork.node[5].nic.phy80211p collectCollisionStatistics false
par myHospitalNetwork.node[5].nic.phy80211p allowTxDuringRx false
scalar myHospitalNetwork.node[5].nic.phy80211p busyTime 0.024524108761332
par myHospitalNetwork.node[5].nic.mac1609_4 typename "\"org.car2x.veins.modules.mac.ieee80211p.Mac1609_4\""
par myHospitalNetwork.node[5].nic.mac1609_4 notAffectedByHostState false
par myHospitalNetwork.node[5].nic.mac1609_4 headerLength 0bit
attr unit bit
par myHospitalNetwork.node[5].nic.mac1609_4 address "\"auto\""
par myHospitalNetwork.node[5].nic.mac1609_4 useServiceChannel true
par myHospitalNetwork.node[5].nic.mac1609_4 serviceChannel 1
par myHospitalNetwork.node[5].nic.mac1609_4 bitrate 6000000bps
attr unit bps
par myHospitalNetwork.node[5].nic.mac1609_4 syncOffset 0.0003s
attr unit s
par myHospitalNetwork.node[5].nic.mac1609_4 txPower 20mW
attr unit mW
par myHospitalNetwork.node[5].nic.mac1609_4 queueSize 0
par myHospitalNetwork.node[5].nic.mac1609_4 dot11RTSThreshold 12000bit
attr unit bit
par myHospitalNetwork.node[5].nic.mac1609_4 dot11ShortRetryLimit 7
par myHospitalNetwork.node[5].nic.mac1609_4 dot11LongRetryLimit 4
par myHospitalNetwork.node[5].nic.mac1609_4 ackLength 112bit
attr unit bit
par myHospitalNetwork.node[5].nic.mac1609_4 useAcks false
par myHospitalNetwork.node[5].nic.mac1609_4 frameErrorRate 0
par myHospitalNetwork.node[5].nic.mac1609_4 ackErrorRate 0
scalar myHospitalNetwork.node[5].nic.mac1609_4 ReceivedUnicastPackets 0
scalar myHospitalNetwork.node[5].nic.mac1609_4 ReceivedBroadcasts 4293
scalar myHospitalNetwork.node[5].nic.mac1609_4 SentPackets 1322
scalar myHospitalNetwork.node[5].nic.mac1609_4 SentAcknowledgements 0
scalar myHospitalNetwork.node[5].nic.mac1609_4 RetriesExceeded 0
scalar myHospitalNetwork.node[5].nic.mac1609_4 SNIRLostPackets 4811
scalar myHospitalNetwork.node[5].nic.mac1609_4 RXTXLostPackets 2531
scalar myHospitalNetwork.node[5].nic.mac1609_4 TotalLostPackets 7342
scalar myHospitalNetwork.node[5].nic.mac1609_4 DroppedPacketsInMac 0
scalar myHospitalNetwork.node[5].nic.mac1609_4 TooLittleTime 126
scalar myHospitalNetwork.node[5].nic.mac1609_4 TimesIntoBackoff 2257
scalar myHospitalNetwork.node[5].nic.mac1609_4 SlotsBackoff 2011
scalar myHospitalNetwork.node[5].nic.mac1609_4 NumInternalContention 0
scalar myHospitalNetwork.node[5].nic.mac1609_4 totalBusyTime 1.34425430189
scalar myHospitalNetwork.node[5].nic.mac1609_4 retriesExceeded:count 0
attr recordingmode count
attr source org_car2x_veins_modules_mac_sigRetriesExceeded
scalar myHospitalNetwork.node[5].nic.mac1609_4 sentAcks:count 0
attr recordingmode count
attr source org_car2x_veins_modules_mac_sigSentAck
scalar myHospitalNetwork.node[5].nic.mac1609_4 sentPackets:count 1322
attr recordingmode count
attr source org_car2x_veins_modules_mac_sigSentPacket
scalar myHospitalNetwork.node[5].nic.mac1609_4 collisions:count 0
attr recordingmode count
attr source org_car2x_veins_modules_mac_sigCollision
scalar myHospitalNetwork.node[5].nic.mac1609_4 channelBusy:timeavg 0.020305956221905
attr recordingmode timeavg
attr source org_car2x_veins_modules_mac_sigChannelBusy
par myHospitalNetwork.node[5].nic typename "\"org.car2x.veins.modules.nic.Nic80211p\""
par myHospitalNetwork.node[5].nic connectionManagerName "\"connectionManager\""
par myHospitalNetwork.node[5].veinsmobility typename "\"org.car2x.veins.modules.mobility.traci.TraCIMobility\""
par myHospitalNetwork.node[5].veinsmobility notAffectedByHostState true
par myHospitalNetwork.node[5].veinsmobility x 0
par myHospitalNetwork.node[5].veinsmobility y 0
par myHospitalNetwork.node[5].veinsmobility z 0
par myHospitalNetwork.node[5].veinsmobility xOrientation 1
par myHospitalNetwork.node[5].veinsmobility yOrientation 0
par myHospitalNetwork.node[5].veinsmobility zOrientation 0
par myHospitalNetwork.node[5].veinsmobility hostPositionOffset 0m
attr unit m
par myHospitalNetwork.node[5].veinsmobility setHostSpeed false
par myHospitalNetwork.node[5].veinsmobility accidentCount 0
par myHospitalNetwork.node[5].veinsmobility accidentStart 43.8828s
attr unit s
par myHospitalNetwork.node[5].veinsmobility accidentDuration "uniform(30s, 60s)"
attr unit s
par myHospitalNetwork.node[5].veinsmobility accidentInterval "uniform(30s, 60s)"
attr unit s
scalar myHospitalNetwork.node[5].veinsmobility startTime 8.1
scalar myHospitalNetwork.node[5].veinsmobility totalTime 66.1
scalar myHospitalNetwork.node[5].veinsmobility stopTime 74.3
scalar myHospitalNetwork.node[5].veinsmobility minSpeed 0
scalar myHospitalNetwork.node[5].veinsmobility maxSpeed 3.327498384442
scalar myHospitalNetwork.node[5].veinsmobility totalDistance 211.65856739501
scalar myHospitalNetwork.node[5].veinsmobility totalCO2Emission 87.715375137907
par myHospitalNetwork.node[5] typename "\"org.car2x.veins.nodes.Car\""
par myHospitalNetwork.node[5] applType "\"AGVControlApp\""
par myHospitalNetwork.node[5] nicType "\"Nic80211p\""
par myHospitalNetwork.node[5] veinsmobilityType "\"org.car2x.veins.modules.mobility.traci.TraCIMobility\""
par myHospitalNetwork.node[6].appl typename "\"gr2.veins_inet.AGVControlApp\""
par myHospitalNetwork.node[6].appl headerLength 80bit
attr unit bit
par myHospitalNetwork.node[6].appl sendBeacons false
par myHospitalNetwork.node[6].appl beaconLengthBits 256bit
attr unit bit
par myHospitalNetwork.node[6].appl beaconUserPriority 7
par myHospitalNetwork.node[6].appl beaconInterval 0.1s
attr unit s
par myHospitalNetwork.node[6].appl dataLengthBits 1024bit
attr unit bit
par myHospitalNetwork.node[6].appl dataOnSch true
par myHospitalNetwork.node[6].appl dataUserPriority 7
par myHospitalNetwork.node[6].appl avoidBeaconSynchronization true
par myHospitalNetwork.node[6].appl sendWSA false
par myHospitalNetwork.node[6].appl wsaLengthBits 250bit
attr unit bit
par myHospitalNetwork.node[6].appl wsaInterval 1s
attr unit s
par myHospitalNetwork.node[6].appl appName "\"My first Veins App!\""
scalar myHospitalNetwork.node[6].appl generatedWSMs 0
scalar myHospitalNetwork.node[6].appl receivedWSMs 0
scalar myHospitalNetwork.node[6].appl generatedBSMs 651
scalar myHospitalNetwork.node[6].appl receivedBSMs 0
scalar myHospitalNetwork.node[6].appl generatedWSAs 0
scalar myHospitalNetwork.node[6].appl receivedWSAs 0
par myHospitalNetwork.node[6].nic.phy80211p typename "\"org.car2x.veins.modules.phy.PhyLayer80211p\""
par myHospitalNetwork.node[6].nic.phy80211p recordStats false
par myHospitalNetwork.node[6].nic.phy80211p usePropagationDelay true
par myHospitalNetwork.node[6].nic.phy80211p noiseFloor -98dBm
attr unit dBm
par myHospitalNetwork.node[6].nic.phy80211p useNoiseFloor true
par myHospitalNetwork.node[6].nic.phy80211p antenna "<Antenna type=\"SampledAntenna1D\" id=\"monopole\">...</Antenna> at /home/duong/Desktop/omnetpp-6.0.1/workspace/Gr2/simulations/hh//antenna.xml:35"
par myHospitalNetwork.node[6].nic.phy80211p antennaOffsetX 0m
attr unit m
par myHospitalNetwork.node[6].nic.phy80211p antennaOffsetY 0m
attr unit m
par myHospitalNetwork.node[6].nic.phy80211p antennaOffsetZ 1.895m
attr unit m
par myHospitalNetwork.node[6].nic.phy80211p antennaOffsetYaw 0rad
attr unit rad
par myHospitalNetwork.node[6].nic.phy80211p analogueModels "<root>...</root> at /home/duong/Desktop/omnetpp-6.0.1/workspace/Gr2/simulations/hh//config.xml:34"
par myHospitalNetwork.node[6].nic.phy80211p decider "<root>...</root> at /home/duong/Desktop/omnetpp-6.0.1/workspace/Gr2/simulations/hh//config.xml:34"
par myHospitalNetwork.node[6].nic.phy80211p minPowerLevel -110dBm
attr unit dBm
par myHospitalNetwork.node[6].nic.phy80211p timeRXToTX 0s
attr unit s
par myHospitalNetwork.node[6].nic.phy80211p timeRXToSleep 0s
attr unit s
par myHospitalNetwork.node[6].nic.phy80211p timeTXToRX 0s
attr unit s
par myHospitalNetwork.node[6].nic.phy80211p timeTXToSleep 0s
attr unit s
par myHospitalNetwork.node[6].nic.phy80211p timeSleepToRX 0s
attr unit s
par myHospitalNetwork.node[6].nic.phy80211p timeSleepToTX 0s
attr unit s
par myHospitalNetwork.node[6].nic.phy80211p initialRadioState 0
par myHospitalNetwork.node[6].nic.phy80211p radioMinAtt 1
par myHospitalNetwork.node[6].nic.phy80211p radioMaxAtt 0
par myHospitalNetwork.node[6].nic.phy80211p nbRadioChannels 1
par myHospitalNetwork.node[6].nic.phy80211p initialRadioChannel 0
par myHospitalNetwork.node[6].nic.phy80211p ccaThreshold -65dBm
attr unit dBm
par myHospitalNetwork.node[6].nic.phy80211p collectCollisionStatistics false
par myHospitalNetwork.node[6].nic.phy80211p allowTxDuringRx false
scalar myHospitalNetwork.node[6].nic.phy80211p busyTime 0.027351042944789
par myHospitalNetwork.node[6].nic.mac1609_4 typename "\"org.car2x.veins.modules.mac.ieee80211p.Mac1609_4\""
par myHospitalNetwork.node[6].nic.mac1609_4 notAffectedByHostState false
par myHospitalNetwork.node[6].nic.mac1609_4 headerLength 0bit
attr unit bit
par myHospitalNetwork.node[6].nic.mac1609_4 address "\"auto\""
par myHospitalNetwork.node[6].nic.mac1609_4 useServiceChannel true
par myHospitalNetwork.node[6].nic.mac1609_4 serviceChannel 1
par myHospitalNetwork.node[6].nic.mac1609_4 bitrate 6000000bps
attr unit bps
par myHospitalNetwork.node[6].nic.mac1609_4 syncOffset 0.0003s
attr unit s
par myHospitalNetwork.node[6].nic.mac1609_4 txPower 20mW
attr unit mW
par myHospitalNetwork.node[6].nic.mac1609_4 queueSize 0
par myHospitalNetwork.node[6].nic.mac1609_4 dot11RTSThreshold 12000bit
attr unit bit
par myHospitalNetwork.node[6].nic.mac1609_4 dot11ShortRetryLimit 7
par myHospitalNetwork.node[6].nic.mac1609_4 dot11LongRetryLimit 4
par myHospitalNetwork.node[6].nic.mac1609_4 ackLength 112bit
attr unit bit
par myHospitalNetwork.node[6].nic.mac1609_4 useAcks false
par myHospitalNetwork.node[6].nic.mac1609_4 frameErrorRate 0
par myHospitalNetwork.node[6].nic.mac1609_4 ackErrorRate 0
scalar myHospitalNetwork.node[6].nic.mac1609_4 ReceivedUnicastPackets 0
scalar myHospitalNetwork.node[6].nic.mac1609_4 ReceivedBroadcasts 4123
scalar myHospitalNetwork.node[6].nic.mac1609_4 SentPackets 1302
scalar myHospitalNetwork.node[6].nic.mac1609_4 SentAcknowledgements 0
scalar myHospitalNetwork.node[6].nic.mac1609_4 RetriesExceeded 0
scalar myHospitalNetwork.node[6].nic.mac1609_4 SNIRLostPackets 5746
scalar myHospitalNetwork.node[6].nic.mac1609_4 RXTXLostPackets 1652
scalar myHospitalNetwork.node[6].nic.mac1609_4 TotalLostPackets 7398
scalar myHospitalNetwork.node[6].nic.mac1609_4 DroppedPacketsInMac 0
scalar myHospitalNetwork.node[6].nic.mac1609_4 TooLittleTime 604
scalar myHospitalNetwork.node[6].nic.mac1609_4 TimesIntoBackoff 2709
scalar myHospitalNetwork.node[6].nic.mac1609_4 SlotsBackoff 1922
scalar myHospitalNetwork.node[6].nic.mac1609_4 NumInternalContention 0
scalar myHospitalNetwork.node[6].nic.mac1609_4 totalBusyTime 1.32388407272
scalar myHospitalNetwork.node[6].nic.mac1609_4 retriesExceeded:count 0
attr recordingmode count
attr source org_car2x_veins_modules_mac_sigRetriesExceeded
scalar myHospitalNetwork.node[6].nic.mac1609_4 sentAcks:count 0
attr recordingmode count
attr source org_car2x_veins_modules_mac_sigSentAck
scalar myHospitalNetwork.node[6].nic.mac1609_4 sentPackets:count 1302
attr recordingmode count
attr source org_car2x_veins_modules_mac_sigSentPacket
scalar myHospitalNetwork.node[6].nic.mac1609_4 collisions:count 0
attr recordingmode count
attr source org_car2x_veins_modules_mac_sigCollision
scalar myHospitalNetwork.node[6].nic.mac1609_4 channelBusy:timeavg 0.020304970440492
attr recordingmode timeavg
attr source org_car2x_veins_modules_mac_sigChannelBusy
par myHospitalNetwork.node[6].nic typename "\"org.car2x.veins.modules.nic.Nic80211p\""
par myHospitalNetwork.node[6].nic connectionManagerName "\"connectionManager\""
par myHospitalNetwork.node[6].veinsmobility typename "\"org.car2x.veins.modules.mobility.traci.TraCIMobility\""
par myHospitalNetwork.node[6].veinsmobility notAffectedByHostState true
par myHospitalNetwork.node[6].veinsmobility x 0
par myHospitalNetwork.node[6].veinsmobility y 0
par myHospitalNetwork.node[6].veinsmobility z 0
par myHospitalNetwork.node[6].veinsmobility xOrientation 1
par myHospitalNetwork.node[6].veinsmobility yOrientation 0
par myHospitalNetwork.node[6].veinsmobility zOrientation 0
par myHospitalNetwork.node[6].veinsmobility hostPositionOffset 0m
attr unit m
par myHospitalNetwork.node[6].veinsmobility setHostSpeed false
par myHospitalNetwork.node[6].veinsmobility accidentCount 0
par myHospitalNetwork.node[6].veinsmobility accidentStart 57.3128s
attr unit s
par myHospitalNetwork.node[6].veinsmobility accidentDuration "uniform(30s, 60s)"
attr unit s
par myHospitalNetwork.node[6].veinsmobility accidentInterval "uniform(30s, 60s)"
attr unit s
scalar myHospitalNetwork.node[6].veinsmobility startTime 9.1
scalar myHospitalNetwork.node[6].veinsmobility totalTime 65.1
scalar myHospitalNetwork.node[6].veinsmobility stopTime 74.3
scalar myHospitalNetwork.node[6].veinsmobility minSpeed 0
scalar myHospitalNetwork.node[6].veinsmobility maxSpeed 4.3248588876271
scalar myHospitalNetwork.node[6].veinsmobility totalDistance 271.66394528519
scalar myHospitalNetwork.node[6].veinsmobility totalCO2Emission 92.947624618402
par myHospitalNetwork.node[6] typename "\"org.car2x.veins.nodes.Car\""
par myHospitalNetwork.node[6] applType "\"AGVControlApp\""
par myHospitalNetwork.node[6] nicType "\"Nic80211p\""
par myHospitalNetwork.node[6] veinsmobilityType "\"org.car2x.veins.modules.mobility.traci.TraCIMobility\""
par myHospitalNetwork.node[7].appl typename "\"gr2.veins_inet.AGVControlApp\""
par myHospitalNetwork.node[7].appl headerLength 80bit
attr unit bit
par myHospitalNetwork.node[7].appl sendBeacons false
par myHospitalNetwork.node[7].appl beaconLengthBits 256bit
attr unit bit
par myHospitalNetwork.node[7].appl beaconUserPriority 7
par myHospitalNetwork.node[7].appl beaconInterval 0.1s
attr unit s
par myHospitalNetwork.node[7].appl dataLengthBits 1024bit
attr unit bit
par myHospitalNetwork.node[7].appl dataOnSch true
par myHospitalNetwork.node[7].appl dataUserPriority 7
par myHospitalNetwork.node[7].appl avoidBeaconSynchronization true
par myHospitalNetwork.node[7].appl sendWSA false
par myHospitalNetwork.node[7].appl wsaLengthBits 250bit
attr unit bit
par myHospitalNetwork.node[7].appl wsaInterval 1s
attr unit s
par myHospitalNetwork.node[7].appl appName "\"My first Veins App!\""
scalar myHospitalNetwork.node[7].appl generatedWSMs 0
scalar myHospitalNetwork.node[7].appl receivedWSMs 0
scalar myHospitalNetwork.node[7].appl generatedBSMs 421
scalar myHospitalNetwork.node[7].appl receivedBSMs 0
scalar myHospitalNetwork.node[7].appl generatedWSAs 0
scalar myHospitalNetwork.node[7].appl receivedWSAs 0
par myHospitalNetwork.node[7].nic.phy80211p typename "\"org.car2x.veins.modules.phy.PhyLayer80211p\""
par myHospitalNetwork.node[7].nic.phy80211p recordStats false
par myHospitalNetwork.node[7].nic.phy80211p usePropagationDelay true
par myHospitalNetwork.node[7].nic.phy80211p noiseFloor -98dBm
attr unit dBm
par myHospitalNetwork.node[7].nic.phy80211p useNoiseFloor true
par myHospitalNetwork.node[7].nic.phy80211p antenna "<Antenna type=\"SampledAntenna1D\" id=\"monopole\">...</Antenna> at /home/duong/Desktop/omnetpp-6.0.1/workspace/Gr2/simulations/hh//antenna.xml:35"
par myHospitalNetwork.node[7].nic.phy80211p antennaOffsetX 0m
attr unit m
par myHospitalNetwork.node[7].nic.phy80211p antennaOffsetY 0m
attr unit m
par myHospitalNetwork.node[7].nic.phy80211p antennaOffsetZ 1.895m
attr unit m
par myHospitalNetwork.node[7].nic.phy80211p antennaOffsetYaw 0rad
attr unit rad
par myHospitalNetwork.node[7].nic.phy80211p analogueModels "<root>...</root> at /home/duong/Desktop/omnetpp-6.0.1/workspace/Gr2/simulations/hh//config.xml:34"
par myHospitalNetwork.node[7].nic.phy80211p decider "<root>...</root> at /home/duong/Desktop/omnetpp-6.0.1/workspace/Gr2/simulations/hh//config.xml:34"
par myHospitalNetwork.node[7].nic.phy80211p minPowerLevel -110dBm
attr unit dBm
par myHospitalNetwork.node[7].nic.phy80211p timeRXToTX 0s
attr unit s
par myHospitalNetwork.node[7].nic.phy80211p timeRXToSleep 0s
attr unit s
par myHospitalNetwork.node[7].nic.phy80211p timeTXToRX 0s
attr unit s
par myHospitalNetwork.node[7].nic.phy80211p timeTXToSleep 0s
attr unit s
par myHospitalNetwork.node[7].nic.phy80211p timeSleepToRX 0s
attr unit s
par myHospitalNetwork.node[7].nic.phy80211p timeSleepToTX 0s
attr unit s
par myHospitalNetwork.node[7].nic.phy80211p initialRadioState 0
par myHospitalNetwork.node[7].nic.phy80211p radioMinAtt 1
par myHospitalNetwork.node[7].nic.phy80211p radioMaxAtt 0
par myHospitalNetwork.node[7].nic.phy80211p nbRadioChannels 1
par myHospitalNetwork.node[7].nic.phy80211p initialRadioChannel 0
par myHospitalNetwork.node[7].nic.phy80211p ccaThreshold -65dBm
attr unit dBm
par myHospitalNetwork.node[7].nic.phy80211p collectCollisionStatistics false
par myHospitalNetwork.node[7].nic.phy80211p allowTxDuringRx false
scalar myHospitalNetwork.node[7].nic.phy80211p busyTime 0.029597535545026
par myHospitalNetwork.node[7].nic.mac1609_4 typename "\"org.car2x.veins.modules.mac.ieee80211p.Mac1609_4\""
par myHospitalNetwork.node[7].nic.mac1609_4 notAffectedByHostState false
par myHospitalNetwork.node[7].nic.mac1609_4 headerLength 0bit
attr unit bit
par myHospitalNetwork.node[7].nic.mac1609_4 address "\"auto\""
par myHospitalNetwork.node[7].nic.mac1609_4 useServiceChannel true
par myHospitalNetwork.node[7].nic.mac1609_4 serviceChannel 1
par myHospitalNetwork.node[7].nic.mac1609_4 bitrate 6000000bps
attr unit bps
par myHospitalNetwork.node[7].nic.mac1609_4 syncOffset 0.0003s
attr unit s
par myHospitalNetwork.node[7].nic.mac1609_4 txPower 20mW
attr unit mW
par myHospitalNetwork.node[7].nic.mac1609_4 queueSize 0
par myHospitalNetwork.node[7].nic.mac1609_4 dot11RTSThreshold 12000bit
attr unit bit
par myHospitalNetwork.node[7].nic.mac1609_4 dot11ShortRetryLimit 7
par myHospitalNetwork.node[7].nic.mac1609_4 dot11LongRetryLimit 4
par myHospitalNetwork.node[7].nic.mac1609_4 ackLength 112bit
attr unit bit
par myHospitalNetwork.node[7].nic.mac1609_4 useAcks false
par myHospitalNetwork.node[7].nic.mac1609_4 frameErrorRate 0
par myHospitalNetwork.node[7].nic.mac1609_4 ackErrorRate 0
scalar myHospitalNetwork.node[7].nic.mac1609_4 ReceivedUnicastPackets 0
scalar myHospitalNetwork.node[7].nic.mac1609_4 ReceivedBroadcasts 2530
scalar myHospitalNetwork.node[7].nic.mac1609_4 SentPackets 842
scalar myHospitalNetwork.node[7].nic.mac1609_4 SentAcknowledgements 0
scalar myHospitalNetwork.node[7].nic.mac1609_4 RetriesExceeded 0
scalar myHospitalNetwork.node[7].nic.mac1609_4 SNIRLostPackets 4455
scalar myHospitalNetwork.node[7].nic.mac1609_4 RXTXLostPackets 1165
scalar myHospitalNetwork.node[7].nic.mac1609_4 TotalLostPackets 5620
scalar myHospitalNetwork.node[7].nic.mac1609_4 DroppedPacketsInMac 0
scalar myHospitalNetwork.node[7].nic.mac1609_4 TooLittleTime 328
scalar myHospitalNetwork.node[7].nic.mac1609_4 TimesIntoBackoff 1684
scalar myHospitalNetwork.node[7].nic.mac1609_4 SlotsBackoff 1269
scalar myHospitalNetwork.node[7].nic.mac1609_4 NumInternalContention 0
scalar myHospitalNetwork.node[7].nic.mac1609_4 totalBusyTime 0.860852144992
scalar myHospitalNetwork.node[7].nic.mac1609_4 retriesExceeded:count 0
attr recordingmode count
attr source org_car2x_veins_modules_mac_sigRetriesExceeded
scalar myHospitalNetwork.node[7].nic.mac1609_4 sentAcks:count 0
attr recordingmode count
attr source org_car2x_veins_modules_mac_sigSentAck
scalar myHospitalNetwork.node[7].nic.mac1609_4 sentPackets:count 842
attr recordingmode count
attr source org_car2x_veins_modules_mac_sigSentPacket
scalar myHospitalNetwork.node[7].nic.mac1609_4 collisions:count 0
attr recordingmode count
attr source org_car2x_veins_modules_mac_sigCollision
scalar myHospitalNetwork.node[7].nic.mac1609_4 channelBusy:timeavg 0.020399339928721
attr recordingmode timeavg
attr source org_car2x_veins_modules_mac_sigChannelBusy
par myHospitalNetwork.node[7].nic typename "\"org.car2x.veins.modules.nic.Nic80211p\""
par myHospitalNetwork.node[7].nic connectionManagerName "\"connectionManager\""
par myHospitalNetwork.node[7].veinsmobility typename "\"org.car2x.veins.modules.mobility.traci.TraCIMobility\""
par myHospitalNetwork.node[7].veinsmobility notAffectedByHostState true
par myHospitalNetwork.node[7].veinsmobility x 0
par myHospitalNetwork.node[7].veinsmobility y 0
par myHospitalNetwork.node[7].veinsmobility z 0
par myHospitalNetwork.node[7].veinsmobility xOrientation 1
par myHospitalNetwork.node[7].veinsmobility yOrientation 0
par myHospitalNetwork.node[7].veinsmobility zOrientation 0
par myHospitalNetwork.node[7].veinsmobility hostPositionOffset 0m
attr unit m
par myHospitalNetwork.node[7].veinsmobility setHostSpeed false
par myHospitalNetwork.node[7].veinsmobility accidentCount 0
par myHospitalNetwork.node[7].veinsmobility accidentStart 48.8824s
attr unit s
par myHospitalNetwork.node[7].veinsmobility accidentDuration "uniform(30s, 60s)"
attr unit s
par myHospitalNetwork.node[7].veinsmobility accidentInterval "uniform(30s, 60s)"
attr unit s
scalar myHospitalNetwork.node[7].veinsmobility startTime 32.1
scalar myHospitalNetwork.node[7].veinsmobility totalTime 42.1
scalar myHospitalNetwork.node[7].veinsmobility stopTime 74.3
scalar myHospitalNetwork.node[7].veinsmobility minSpeed 1.9
scalar myHospitalNetwork.node[7].veinsmobility maxSpeed 3.5906841916787
scalar myHospitalNetwork.node[7].veinsmobility totalDistance 150.78133480856
scalar myHospitalNetwork.node[7].veinsmobility totalCO2Emission 55.367685699935
par myHospitalNetwork.node[7] typename "\"org.car2x.veins.nodes.Car\""
par myHospitalNetwork.node[7] applType "\"AGVControlApp\""
par myHospitalNetwork.node[7] nicType "\"Nic80211p\""
par myHospitalNetwork.node[7] veinsmobilityType "\"org.car2x.veins.modules.mobility.traci.TraCIMobility\""
par myHospitalNetwork.node[8].appl typename "\"gr2.veins_inet.AGVControlApp\""
par myHospitalNetwork.node[8].appl headerLength 80bit
attr unit bit
par myHospitalNetwork.node[8].appl sendBeacons false
par myHospitalNetwork.node[8].appl beaconLengthBits 256bit
attr unit bit
par myHospitalNetwork.node[8].appl beaconUserPriority 7
par myHospitalNetwork.node[8].appl beaconInterval 0.1s
attr unit s
par myHospitalNetwork.node[8].appl dataLengthBits 1024bit
attr unit bit
par myHospitalNetwork.node[8].appl dataOnSch true
par myHospitalNetwork.node[8].appl dataUserPriority 7
par myHospitalNetwork.node[8].appl avoidBeaconSynchronization true
par myHospitalNetwork.node[8].appl sendWSA false
par myHospitalNetwork.node[8].appl wsaLengthBits 250bit
attr unit bit
par myHospitalNetwork.node[8].appl wsaInterval 1s
attr unit s
par myHospitalNetwork.node[8].appl appName "\"My first Veins App!\""
scalar myHospitalNetwork.node[8].appl generatedWSMs 0
scalar myHospitalNetwork.node[8].appl receivedWSMs 0
scalar myHospitalNetwork.node[8].appl generatedBSMs 361
scalar myHospitalNetwork.node[8].appl receivedBSMs 0
scalar myHospitalNetwork.node[8].appl generatedWSAs 0
scalar myHospitalNetwork.node[8].appl receivedWSAs 0
par myHospitalNetwork.node[8].nic.phy80211p typename "\"org.car2x.veins.modules.phy.PhyLayer80211p\""
par myHospitalNetwork.node[8].nic.phy80211p recordStats false
par myHospitalNetwork.node[8].nic.phy80211p usePropagationDelay true
par myHospitalNetwork.node[8].nic.phy80211p noiseFloor -98dBm
attr unit dBm
par myHospitalNetwork.node[8].nic.phy80211p useNoiseFloor true
par myHospitalNetwork.node[8].nic.phy80211p antenna "<Antenna type=\"SampledAntenna1D\" id=\"monopole\">...</Antenna> at /home/duong/Desktop/omnetpp-6.0.1/workspace/Gr2/simulations/hh//antenna.xml:35"
par myHospitalNetwork.node[8].nic.phy80211p antennaOffsetX 0m
attr unit m
par myHospitalNetwork.node[8].nic.phy80211p antennaOffsetY 0m
attr unit m
par myHospitalNetwork.node[8].nic.phy80211p antennaOffsetZ 1.895m
attr unit m
par myHospitalNetwork.node[8].nic.phy80211p antennaOffsetYaw 0rad
attr unit rad
par myHospitalNetwork.node[8].nic.phy80211p analogueModels "<root>...</root> at /home/duong/Desktop/omnetpp-6.0.1/workspace/Gr2/simulations/hh//config.xml:34"
par myHospitalNetwork.node[8].nic.phy80211p decider "<root>...</root> at /home/duong/Desktop/omnetpp-6.0.1/workspace/Gr2/simulations/hh//config.xml:34"
par myHospitalNetwork.node[8].nic.phy80211p minPowerLevel -110dBm
attr unit dBm
par myHospitalNetwork.node[8].nic.phy80211p timeRXToTX 0s
attr unit s
par myHospitalNetwork.node[8].nic.phy80211p timeRXToSleep 0s
attr unit s
par myHospitalNetwork.node[8].nic.phy80211p timeTXToRX 0s
attr unit s
par myHospitalNetwork.node[8].nic.phy80211p timeTXToSleep 0s
attr unit s
par myHospitalNetwork.node[8].nic.phy80211p timeSleepToRX 0s
attr unit s
par myHospitalNetwork.node[8].nic.phy80211p timeSleepToTX 0s
attr unit s
par myHospitalNetwork.node[8].nic.phy80211p initialRadioState 0
par myHospitalNetwork.node[8].nic.phy80211p radioMinAtt 1
par myHospitalNetwork.node[8].nic.phy80211p radioMaxAtt 0
par myHospitalNetwork.node[8].nic.phy80211p nbRadioChannels 1
par myHospitalNetwork.node[8].nic.phy80211p initialRadioChannel 0
par myHospitalNetwork.node[8].nic.phy80211p ccaThreshold -65dBm
attr unit dBm
par myHospitalNetwork.node[8].nic.phy80211p collectCollisionStatistics false
par myHospitalNetwork.node[8].nic.phy80211p allowTxDuringRx false
scalar myHospitalNetwork.node[8].nic.phy80211p busyTime 0.034619005524864
par myHospitalNetwork.node[8].nic.mac1609_4 typename "\"org.car2x.veins.modules.mac.ieee80211p.Mac1609_4\""
par myHospitalNetwork.node[8].nic.mac1609_4 notAffectedByHostState false
par myHospitalNetwork.node[8].nic.mac1609_4 headerLength 0bit
attr unit bit
par myHospitalNetwork.node[8].nic.mac1609_4 address "\"auto\""
par myHospitalNetwork.node[8].nic.mac1609_4 useServiceChannel true
par myHospitalNetwork.node[8].nic.mac1609_4 serviceChannel 1
par myHospitalNetwork.node[8].nic.mac1609_4 bitrate 6000000bps
attr unit bps
par myHospitalNetwork.node[8].nic.mac1609_4 syncOffset 0.0003s
attr unit s
par myHospitalNetwork.node[8].nic.mac1609_4 txPower 20mW
attr unit mW
par myHospitalNetwork.node[8].nic.mac1609_4 queueSize 0
par myHospitalNetwork.node[8].nic.mac1609_4 dot11RTSThreshold 12000bit
attr unit bit
par myHospitalNetwork.node[8].nic.mac1609_4 dot11ShortRetryLimit 7
par myHospitalNetwork.node[8].nic.mac1609_4 dot11LongRetryLimit 4
par myHospitalNetwork.node[8].nic.mac1609_4 ackLength 112bit
attr unit bit
par myHospitalNetwork.node[8].nic.mac1609_4 useAcks false
par myHospitalNetwork.node[8].nic.mac1609_4 frameErrorRate 0
par myHospitalNetwork.node[8].nic.mac1609_4 ackErrorRate 0
scalar myHospitalNetwork.node[8].nic.mac1609_4 ReceivedUnicastPackets 0
scalar myHospitalNetwork.node[8].nic.mac1609_4 ReceivedBroadcasts 1978
scalar myHospitalNetwork.node[8].nic.mac1609_4 SentPackets 722
scalar myHospitalNetwork.node[8].nic.mac1609_4 SentAcknowledgements 0
scalar myHospitalNetwork.node[8].nic.mac1609_4 RetriesExceeded 0
scalar myHospitalNetwork.node[8].nic.mac1609_4 SNIRLostPackets 5101
scalar myHospitalNetwork.node[8].nic.mac1609_4 RXTXLostPackets 56
scalar myHospitalNetwork.node[8].nic.mac1609_4 TotalLostPackets 5157
scalar myHospitalNetwork.node[8].nic.mac1609_4 DroppedPacketsInMac 0
scalar myHospitalNetwork.node[8].nic.mac1609_4 TooLittleTime 688
scalar myHospitalNetwork.node[8].nic.mac1609_4 TimesIntoBackoff 1444
scalar myHospitalNetwork.node[8].nic.mac1609_4 SlotsBackoff 1110
scalar myHospitalNetwork.node[8].nic.mac1609_4 NumInternalContention 0
scalar myHospitalNetwork.node[8].nic.mac1609_4 totalBusyTime 0.689770181675
scalar myHospitalNetwork.node[8].nic.mac1609_4 retriesExceeded:count 0
attr recordingmode count
attr source org_car2x_veins_modules_mac_sigRetriesExceeded
scalar myHospitalNetwork.node[8].nic.mac1609_4 sentAcks:count 0
attr recordingmode count
attr source org_car2x_veins_modules_mac_sigSentAck
scalar myHospitalNetwork.node[8].nic.mac1609_4 sentPackets:count 722
attr recordingmode count
attr source org_car2x_veins_modules_mac_sigSentPacket
scalar myHospitalNetwork.node[8].nic.mac1609_4 collisions:count 0
attr recordingmode count
attr source org_car2x_veins_modules_mac_sigCollision
scalar myHospitalNetwork.node[8].nic.mac1609_4 channelBusy:timeavg 0.01905442490815
attr recordingmode timeavg
attr source org_car2x_veins_modules_mac_sigChannelBusy
par myHospitalNetwork.node[8].nic typename "\"org.car2x.veins.modules.nic.Nic80211p\""
par myHospitalNetwork.node[8].nic connectionManagerName "\"connectionManager\""
par myHospitalNetwork.node[8].veinsmobility typename "\"org.car2x.veins.modules.mobility.traci.TraCIMobility\""
par myHospitalNetwork.node[8].veinsmobility notAffectedByHostState true
par myHospitalNetwork.node[8].veinsmobility x 0
par myHospitalNetwork.node[8].veinsmobility y 0
par myHospitalNetwork.node[8].veinsmobility z 0
par myHospitalNetwork.node[8].veinsmobility xOrientation 1
par myHospitalNetwork.node[8].veinsmobility yOrientation 0
par myHospitalNetwork.node[8].veinsmobility zOrientation 0
par myHospitalNetwork.node[8].veinsmobility hostPositionOffset 0m
attr unit m
par myHospitalNetwork.node[8].veinsmobility setHostSpeed false
[...]
attr unit s
par myHospitalNetwork.node[9].nic.mac1609_4 txPower 20mW
attr unit mW
par myHospitalNetwork.node[9].nic.mac1609_4 queueSize 0
par myHospitalNetwork.node[9].nic.mac1609_4 dot11RTSThreshold 12000bit
attr unit bit
par myHospitalNetwork.node[9].nic.mac1609_4 dot11ShortRetryLimit 7
par myHospitalNetwork.node[9].nic.mac1609_4 dot11LongRetryLimit 4
par myHospitalNetwork.node[9].nic.mac1609_4 ackLength 112bit
attr unit bit
par myHospitalNetwork.node[9].nic.mac1609_4 useAcks false
par myHospitalNetwork.node[9].nic.mac1609_4 frameErrorRate 0
par myHospitalNetwork.node[9].nic.mac1609_4 ackErrorRate 0
scalar myHospitalNetwork.node[9].nic.mac1609_4 ReceivedUnicastPackets 0
scalar myHospitalNetwork.node[9].nic.mac1609_4 ReceivedBroadcasts 748
scalar myHospitalNetwork.node[9].nic.mac1609_4 SentPackets 242
scalar myHospitalNetwork.node[9].nic.mac1609_4 SentAcknowledgements 0
scalar myHospitalNetwork.node[9].nic.mac1609_4 RetriesExceeded 0
scalar myHospitalNetwork.node[9].nic.mac1609_4 SNIRLostPackets 1565
scalar myHospitalNetwork.node[9].nic.mac1609_4 RXTXLostPackets 371
scalar myHospitalNetwork.node[9].nic.mac1609_4 TotalLostPackets 1936
scalar myHospitalNetwork.node[9].nic.mac1609_4 DroppedPacketsInMac 0
scalar myHospitalNetwork.node[9].nic.mac1609_4 TooLittleTime 108
scalar myHospitalNetwork.node[9].nic.mac1609_4 TimesIntoBackoff 484
scalar myHospitalNetwork.node[9].nic.mac1609_4 SlotsBackoff 332
scalar myHospitalNetwork.node[9].nic.mac1609_4 NumInternalContention 0
scalar myHospitalNetwork.node[9].nic.mac1609_4 totalBusyTime 0.258957462768
scalar myHospitalNetwork.node[9].nic.mac1609_4 retriesExceeded:count 0
attr recordingmode count
attr source org_car2x_veins_modules_mac_sigRetriesExceeded
scalar myHospitalNetwork.node[9].nic.mac1609_4 sentAcks:count 0
attr recordingmode count
attr source org_car2x_veins_modules_mac_sigSentAck
scalar myHospitalNetwork.node[9].nic.mac1609_4 sentPackets:count 242
attr recordingmode count
attr source org_car2x_veins_modules_mac_sigSentPacket
scalar myHospitalNetwork.node[9].nic.mac1609_4 collisions:count 0
attr recordingmode count
attr source org_car2x_veins_modules_mac_sigCollision
scalar myHospitalNetwork.node[9].nic.mac1609_4 channelBusy:timeavg 0.021226021538361
attr recordingmode timeavg
attr source org_car2x_veins_modules_mac_sigChannelBusy
par myHospitalNetwork.node[9].nic typename "\"org.car2x.veins.modules.nic.Nic80211p\""
par myHospitalNetwork.node[9].nic connectionManagerName "\"connectionManager\""
par myHospitalNetwork.node[9].veinsmobility typename "\"org.car2x.veins.modules.mobility.traci.TraCIMobility\""
par myHospitalNetwork.node[9].veinsmobility notAffectedByHostState true
par myHospitalNetwork.node[9].veinsmobility x 0
par myHospitalNetwork.node[9].veinsmobility y 0
par myHospitalNetwork.node[9].veinsmobility z 0
par myHospitalNetwork.node[9].veinsmobility xOrientation 1
par myHospitalNetwork.node[9].veinsmobility yOrientation 0
par myHospitalNetwork.node[9].veinsmobility zOrientation 0
par myHospitalNetwork.node[9].veinsmobility hostPositionOffset 0m
attr unit m
par myHospitalNetwork.node[9].veinsmobility setHostSpeed false
par myHospitalNetwork.node[9].veinsmobility accidentCount 0
par myHospitalNetwork.node[9].veinsmobility accidentStart 48.8605s
attr unit s
par myHospitalNetwork.node[9].veinsmobility accidentDuration "uniform(30s, 60s)"
attr unit s
par myHospitalNetwork.node[9].veinsmobility accidentInterval "uniform(30s, 60s)"
attr unit s
scalar myHospitalNetwork.node[9].veinsmobility startTime 62.1
scalar myHospitalNetwork.node[9].veinsmobility totalTime 12.1
scalar myHospitalNetwork.node[9].veinsmobility stopTime 74.3
scalar myHospitalNetwork.node[9].veinsmobility minSpeed 1.9
scalar myHospitalNetwork.node[9].veinsmobility maxSpeed 4.1977333853056
scalar myHospitalNetwork.node[9].veinsmobility totalDistance 50.247030641174
scalar myHospitalNetwork.node[9].veinsmobility totalCO2Emission 17.763694231648
par myHospitalNetwork.node[9] typename "\"org.car2x.veins.nodes.Car\""
par myHospitalNetwork.node[9] applType "\"AGVControlApp\""
par myHospitalNetwork.node[9] nicType "\"Nic80211p\""
par myHospitalNetwork.node[9] veinsmobilityType "\"org.car2x.veins.modules.mobility.traci.TraCIMobility\""
par myHospitalNetwork.node[10].appl typename "\"gr2.veins_inet.AGVControlApp\""
par myHospitalNetwork.node[10].appl headerLength 80bit
attr unit bit
par myHospitalNetwork.node[10].appl sendBeacons false
par myHospitalNetwork.node[10].appl beaconLengthBits 256bit
attr unit bit
par myHospitalNetwork.node[10].appl beaconUserPriority 7
par myHospitalNetwork.node[10].appl beaconInterval 0.1s
attr unit s
par myHospitalNetwork.node[10].appl dataLengthBits 1024bit
attr unit bit
par myHospitalNetwork.node[10].appl dataOnSch true
par myHospitalNetwork.node[10].appl dataUserPriority 7
par myHospitalNetwork.node[10].appl avoidBeaconSynchronization true
par myHospitalNetwork.node[10].appl sendWSA false
par myHospitalNetwork.node[10].appl wsaLengthBits 250bit
attr unit bit
par myHospitalNetwork.node[10].appl wsaInterval 1s
attr unit s
par myHospitalNetwork.node[10].appl appName "\"My first Veins App!\""
scalar myHospitalNetwork.node[10].appl generatedWSMs 0
scalar myHospitalNetwork.node[10].appl receivedWSMs 0
scalar myHospitalNetwork.node[10].appl generatedBSMs 61
scalar myHospitalNetwork.node[10].appl receivedBSMs 0
scalar myHospitalNetwork.node[10].appl generatedWSAs 0
scalar myHospitalNetwork.node[10].appl receivedWSAs 0
par myHospitalNetwork.node[10].nic.phy80211p typename "\"org.car2x.veins.modules.phy.PhyLayer80211p\""
par myHospitalNetwork.node[10].nic.phy80211p recordStats false
par myHospitalNetwork.node[10].nic.phy80211p usePropagationDelay true
par myHospitalNetwork.node[10].nic.phy80211p noiseFloor -98dBm
attr unit dBm
par myHospitalNetwork.node[10].nic.phy80211p useNoiseFloor true
par myHospitalNetwork.node[10].nic.phy80211p antenna "<Antenna type=\"SampledAntenna1D\" id=\"monopole\">...</Antenna> at /home/duong/Desktop/omnetpp-6.0.1/workspace/Gr2/simulations/hh//antenna.xml:35"
par myHospitalNetwork.node[10].nic.phy80211p antennaOffsetX 0m
attr unit m
par myHospitalNetwork.node[10].nic.phy80211p antennaOffsetY 0m
attr unit m
par myHospitalNetwork.node[10].nic.phy80211p antennaOffsetZ 1.895m
attr unit m
par myHospitalNetwork.node[10].nic.phy80211p antennaOffsetYaw 0rad
attr unit rad
par myHospitalNetwork.node[10].nic.phy80211p analogueModels "<root>...</root> at /home/duong/Desktop/omnetpp-6.0.1/workspace/Gr2/simulations/hh//config.xml:34"
par myHospitalNetwork.node[10].nic.phy80211p decider "<root>...</root> at /home/duong/Desktop/omnetpp-6.0.1/workspace/Gr2/simulations/hh//config.xml:34"
par myHospitalNetwork.node[10].nic.phy80211p minPowerLevel -110dBm
attr unit dBm
par myHospitalNetwork.node[10].nic.phy80211p timeRXToTX 0s
attr unit s
par myHospitalNetwork.node[10].nic.phy80211p timeRXToSleep 0s
attr unit s
par myHospitalNetwork.node[10].nic.phy80211p timeTXToRX 0s
attr unit s
par myHospitalNetwork.node[10].nic.phy80211p timeTXToSleep 0s
attr unit s
par myHospitalNetwork.node[10].nic.phy80211p timeSleepToRX 0s
attr unit s
par myHospitalNetwork.node[10].nic.phy80211p timeSleepToTX 0s
attr unit s
par myHospitalNetwork.node[10].nic.phy80211p initialRadioState 0
par myHospitalNetwork.node[10].nic.phy80211p radioMinAtt 1
par myHospitalNetwork.node[10].nic.phy80211p radioMaxAtt 0
par myHospitalNetwork.node[10].nic.phy80211p nbRadioChannels 1
par myHospitalNetwork.node[10].nic.phy80211p initialRadioChannel 0
par myHospitalNetwork.node[10].nic.phy80211p ccaThreshold -65dBm
attr unit dBm
par myHospitalNetwork.node[10].nic.phy80211p collectCollisionStatistics false
par myHospitalNetwork.node[10].nic.phy80211p allowTxDuringRx false
scalar myHospitalNetwork.node[10].nic.phy80211p busyTime 0.034507096774194
par myHospitalNetwork.node[10].nic.mac1609_4 typename "\"org.car2x.veins.modules.mac.ieee80211p.Mac1609_4\""
par myHospitalNetwork.node[10].nic.mac1609_4 notAffectedByHostState false
par myHospitalNetwork.node[10].nic.mac1609_4 headerLength 0bit
attr unit bit
par myHospitalNetwork.node[10].nic.mac1609_4 address "\"auto\""
par myHospitalNetwork.node[10].nic.mac1609_4 useServiceChannel true
par myHospitalNetwork.node[10].nic.mac1609_4 serviceChannel 1
par myHospitalNetwork.node[10].nic.mac1609_4 bitrate 6000000bps
attr unit bps
par myHospitalNetwork.node[10].nic.mac1609_4 syncOffset 0.0003s
attr unit s
par myHospitalNetwork.node[10].nic.mac1609_4 txPower 20mW
attr unit mW
par myHospitalNetwork.node[10].nic.mac1609_4 queueSize 0
par myHospitalNetwork.node[10].nic.mac1609_4 dot11RTSThreshold 12000bit
attr unit bit
par myHospitalNetwork.node[10].nic.mac1609_4 dot11ShortRetryLimit 7
par myHospitalNetwork.node[10].nic.mac1609_4 dot11LongRetryLimit 4
par myHospitalNetwork.node[10].nic.mac1609_4 ackLength 112bit
attr unit bit
par myHospitalNetwork.node[10].nic.mac1609_4 useAcks false
par myHospitalNetwork.node[10].nic.mac1609_4 frameErrorRate 0
par myHospitalNetwork.node[10].nic.mac1609_4 ackErrorRate 0
scalar myHospitalNetwork.node[10].nic.mac1609_4 ReceivedUnicastPackets 0
scalar myHospitalNetwork.node[10].nic.mac1609_4 ReceivedBroadcasts 360
scalar myHospitalNetwork.node[10].nic.mac1609_4 SentPackets 122
scalar myHospitalNetwork.node[10].nic.mac1609_4 SentAcknowledgements 0
scalar myHospitalNetwork.node[10].nic.mac1609_4 RetriesExceeded 0
scalar myHospitalNetwork.node[10].nic.mac1609_4 SNIRLostPackets 855
scalar myHospitalNetwork.node[10].nic.mac1609_4 RXTXLostPackets 210
scalar myHospitalNetwork.node[10].nic.mac1609_4 TotalLostPackets 1065
scalar myHospitalNetwork.node[10].nic.mac1609_4 DroppedPacketsInMac 0
scalar myHospitalNetwork.node[10].nic.mac1609_4 TooLittleTime 61
scalar myHospitalNetwork.node[10].nic.mac1609_4 TimesIntoBackoff 244
scalar myHospitalNetwork.node[10].nic.mac1609_4 SlotsBackoff 176
scalar myHospitalNetwork.node[10].nic.mac1609_4 NumInternalContention 0
scalar myHospitalNetwork.node[10].nic.mac1609_4 totalBusyTime 0.135413423443
scalar myHospitalNetwork.node[10].nic.mac1609_4 retriesExceeded:count 0
attr recordingmode count
attr source org_car2x_veins_modules_mac_sigRetriesExceeded
scalar myHospitalNetwork.node[10].nic.mac1609_4 sentAcks:count 0
attr recordingmode count
attr source org_car2x_veins_modules_mac_sigSentAck
scalar myHospitalNetwork.node[10].nic.mac1609_4 sentPackets:count 122
attr recordingmode count
attr source org_car2x_veins_modules_mac_sigSentPacket
scalar myHospitalNetwork.node[10].nic.mac1609_4 collisions:count 0
attr recordingmode count
attr source org_car2x_veins_modules_mac_sigCollision
scalar myHospitalNetwork.node[10].nic.mac1609_4 channelBusy:timeavg 0.021840874748871
attr recordingmode timeavg
attr source org_car2x_veins_modules_mac_sigChannelBusy
par myHospitalNetwork.node[10].nic typename "\"org.car2x.veins.modules.nic.Nic80211p\""
par myHospitalNetwork.node[10].nic connectionManagerName "\"connectionManager\""
par myHospitalNetwork.node[10].veinsmobility typename "\"org.car2x.veins.modules.mobility.traci.TraCIMobility\""
par myHospitalNetwork.node[10].veinsmobility notAffectedByHostState true
par myHospitalNetwork.node[10].veinsmobility x 0
par myHospitalNetwork.node[10].veinsmobility y 0
par myHospitalNetwork.node[10].veinsmobility z 0
par myHospitalNetwork.node[10].veinsmobility xOrientation 1
par myHospitalNetwork.node[10].veinsmobility yOrientation 0
par myHospitalNetwork.node[10].veinsmobility zOrientation 0
par myHospitalNetwork.node[10].veinsmobility hostPositionOffset 0m
attr unit m
par myHospitalNetwork.node[10].veinsmobility setHostSpeed false
par myHospitalNetwork.node[10].veinsmobility accidentCount 0
par myHospitalNetwork.node[10].veinsmobility accidentStart 38.9881s
attr unit s
par myHospitalNetwork.node[10].veinsmobility accidentDuration "uniform(30s, 60s)"
attr unit s
par myHospitalNetwork.node[10].veinsmobility accidentInterval "uniform(30s, 60s)"
attr unit s
scalar myHospitalNetwork.node[10].veinsmobility startTime 68.1
scalar myHospitalNetwork.node[10].veinsmobility totalTime 6.1
scalar myHospitalNetwork.node[10].veinsmobility stopTime 74.3
scalar myHospitalNetwork.node[10].veinsmobility minSpeed 1.9
scalar myHospitalNetwork.node[10].veinsmobility maxSpeed 4.2620948539957
scalar myHospitalNetwork.node[10].veinsmobility totalDistance 25.430562458529
scalar myHospitalNetwork.node[10].veinsmobility totalCO2Emission 9.9382906252878
par myHospitalNetwork.node[10] typename "\"org.car2x.veins.nodes.Car\""
par myHospitalNetwork.node[10] applType "\"AGVControlApp\""
par myHospitalNetwork.node[10] nicType "\"Nic80211p\""
par myHospitalNetwork.node[10] veinsmobilityType "\"org.car2x.veins.modules.mobility.traci.TraCIMobility\""
par myHospitalNetwork.rsu[0].appl typename "\"gr2.veins_inet.HospitalControlApp\""
par myHospitalNetwork.rsu[0].appl headerLength 80bit
attr unit bit
par myHospitalNetwork.rsu[0].appl sendBeacons false
par myHospitalNetwork.rsu[0].appl beaconLengthBits 256bit
attr unit bit
par myHospitalNetwork.rsu[0].appl beaconUserPriority 7
par myHospitalNetwork.rsu[0].appl beaconInterval 1s
attr unit s
par myHospitalNetwork.rsu[0].appl dataLengthBits 1024bit
attr unit bit
par myHospitalNetwork.rsu[0].appl dataOnSch false
par myHospitalNetwork.rsu[0].appl dataUserPriority 7
par myHospitalNetwork.rsu[0].appl avoidBeaconSynchronization true
par myHospitalNetwork.rsu[0].appl sendWSA false
par myHospitalNetwork.rsu[0].appl wsaLengthBits 250bit
attr unit bit
par myHospitalNetwork.rsu[0].appl wsaInterval 1s
attr unit s
scalar myHospitalNetwork.rsu[0].appl generatedWSMs 0
scalar myHospitalNetwork.rsu[0].appl receivedWSMs 1886
scalar myHospitalNetwork.rsu[0].appl generatedBSMs 0
scalar myHospitalNetwork.rsu[0].appl receivedBSMs 1641
scalar myHospitalNetwork.rsu[0].appl generatedWSAs 0
scalar myHospitalNetwork.rsu[0].appl receivedWSAs 0
par myHospitalNetwork.rsu[0].nic.phy80211p typename "\"org.car2x.veins.modules.phy.PhyLayer80211p\""
par myHospitalNetwork.rsu[0].nic.phy80211p recordStats false
par myHospitalNetwork.rsu[0].nic.phy80211p usePropagationDelay true
par myHospitalNetwork.rsu[0].nic.phy80211p noiseFloor -98dBm
attr unit dBm
par myHospitalNetwork.rsu[0].nic.phy80211p useNoiseFloor true
par myHospitalNetwork.rsu[0].nic.phy80211p antenna "<Antenna type=\"SampledAntenna1D\" id=\"monopole\">...</Antenna> at /home/duong/Desktop/omnetpp-6.0.1/workspace/Gr2/simulations/hh//antenna.xml:35"
par myHospitalNetwork.rsu[0].nic.phy80211p antennaOffsetX 0m
attr unit m
par myHospitalNetwork.rsu[0].nic.phy80211p antennaOffsetY 0m
attr unit m
par myHospitalNetwork.rsu[0].nic.phy80211p antennaOffsetZ 0m
attr unit m
par myHospitalNetwork.rsu[0].nic.phy80211p antennaOffsetYaw 0rad
attr unit rad
par myHospitalNetwork.rsu[0].nic.phy80211p analogueModels "<root>...</root> at /home/duong/Desktop/omnetpp-6.0.1/workspace/Gr2/simulations/hh//config.xml:34"
par myHospitalNetwork.rsu[0].nic.phy80211p decider "<root>...</root> at /home/duong/Desktop/omnetpp-6.0.1/workspace/Gr2/simulations/hh//config.xml:34"
par myHospitalNetwork.rsu[0].nic.phy80211p minPowerLevel -110dBm
attr unit dBm
par myHospitalNetwork.rsu[0].nic.phy80211p timeRXToTX 0s
attr unit s
par myHospitalNetwork.rsu[0].nic.phy80211p timeRXToSleep 0s
attr unit s
par myHospitalNetwork.rsu[0].nic.phy80211p timeTXToRX 0s
attr unit s
par myHospitalNetwork.rsu[0].nic.phy80211p timeTXToSleep 0s
attr unit s
par myHospitalNetwork.rsu[0].nic.phy80211p timeSleepToRX 0s
attr unit s
par myHospitalNetwork.rsu[0].nic.phy80211p timeSleepToTX 0s
attr unit s
par myHospitalNetwork.rsu[0].nic.phy80211p initialRadioState 0
par myHospitalNetwork.rsu[0].nic.phy80211p radioMinAtt 1
par myHospitalNetwork.rsu[0].nic.phy80211p radioMaxAtt 0
par myHospitalNetwork.rsu[0].nic.phy80211p nbRadioChannels 1
par myHospitalNetwork.rsu[0].nic.phy80211p initialRadioChannel 0
par myHospitalNetwork.rsu[0].nic.phy80211p ccaThreshold -65dBm
attr unit dBm
par myHospitalNetwork.rsu[0].nic.phy80211p collectCollisionStatistics false
par myHospitalNetwork.rsu[0].nic.phy80211p allowTxDuringRx false
scalar myHospitalNetwork.rsu[0].nic.phy80211p busyTime 0.023317039030958
par myHospitalNetwork.rsu[0].nic.mac1609_4 typename "\"org.car2x.veins.modules.mac.ieee80211p.Mac1609_4\""
par myHospitalNetwork.rsu[0].nic.mac1609_4 notAffectedByHostState false
par myHospitalNetwork.rsu[0].nic.mac1609_4 headerLength 0bit
attr unit bit
par myHospitalNetwork.rsu[0].nic.mac1609_4 address "\"auto\""
par myHospitalNetwork.rsu[0].nic.mac1609_4 useServiceChannel true
par myHospitalNetwork.rsu[0].nic.mac1609_4 serviceChannel 1
par myHospitalNetwork.rsu[0].nic.mac1609_4 bitrate 6000000bps
attr unit bps
par myHospitalNetwork.rsu[0].nic.mac1609_4 syncOffset 0.0003s
attr unit s
par myHospitalNetwork.rsu[0].nic.mac1609_4 txPower 20mW
attr unit mW
par myHospitalNetwork.rsu[0].nic.mac1609_4 queueSize 0
par myHospitalNetwork.rsu[0].nic.mac1609_4 dot11RTSThreshold 12000bit
attr unit bit
par myHospitalNetwork.rsu[0].nic.mac1609_4 dot11ShortRetryLimit 7
par myHospitalNetwork.rsu[0].nic.mac1609_4 dot11LongRetryLimit 4
par myHospitalNetwork.rsu[0].nic.mac1609_4 ackLength 112bit
attr unit bit
par myHospitalNetwork.rsu[0].nic.mac1609_4 useAcks false
par myHospitalNetwork.rsu[0].nic.mac1609_4 frameErrorRate 0
par myHospitalNetwork.rsu[0].nic.mac1609_4 ackErrorRate 0
scalar myHospitalNetwork.rsu[0].nic.mac1609_4 ReceivedUnicastPackets 0
scalar myHospitalNetwork.rsu[0].nic.mac1609_4 ReceivedBroadcasts 3527
scalar myHospitalNetwork.rsu[0].nic.mac1609_4 SentPackets 1884
scalar myHospitalNetwork.rsu[0].nic.mac1609_4 SentAcknowledgements 0
scalar myHospitalNetwork.rsu[0].nic.mac1609_4 RetriesExceeded 0
scalar myHospitalNetwork.rsu[0].nic.mac1609_4 SNIRLostPackets 5930
scalar myHospitalNetwork.rsu[0].nic.mac1609_4 RXTXLostPackets 2245
scalar myHospitalNetwork.rsu[0].nic.mac1609_4 TotalLostPackets 8175
scalar myHospitalNetwork.rsu[0].nic.mac1609_4 DroppedPacketsInMac 0
scalar myHospitalNetwork.rsu[0].nic.mac1609_4 TooLittleTime 0
scalar myHospitalNetwork.rsu[0].nic.mac1609_4 TimesIntoBackoff 2612
scalar myHospitalNetwork.rsu[0].nic.mac1609_4 SlotsBackoff 2773
scalar myHospitalNetwork.rsu[0].nic.mac1609_4 NumInternalContention 0
scalar myHospitalNetwork.rsu[0].nic.mac1609_4 totalBusyTime 1.407832260583
scalar myHospitalNetwork.rsu[0].nic.mac1609_4 retriesExceeded:count 0
attr recordingmode count
attr source org_car2x_veins_modules_mac_sigRetriesExceeded
scalar myHospitalNetwork.rsu[0].nic.mac1609_4 sentAcks:count 0
attr recordingmode count
attr source org_car2x_veins_modules_mac_sigSentAck
scalar myHospitalNetwork.rsu[0].nic.mac1609_4 sentPackets:count 1884
attr recordingmode count
attr source org_car2x_veins_modules_mac_sigSentPacket
scalar myHospitalNetwork.rsu[0].nic.mac1609_4 collisions:count 0
attr recordingmode count
attr source org_car2x_veins_modules_mac_sigCollision
scalar myHospitalNetwork.rsu[0].nic.mac1609_4 channelBusy:timeavg 0.018876127329516
attr recordingmode timeavg
attr source org_car2x_veins_modules_mac_sigChannelBusy
par myHospitalNetwork.rsu[0].nic typename "\"org.car2x.veins.modules.nic.Nic80211p\""
par myHospitalNetwork.rsu[0].nic connectionManagerName "\"connectionManager\""
par myHospitalNetwork.rsu[0].mobility typename "\"org.car2x.veins.base.modules.BaseMobility\""
par myHospitalNetwork.rsu[0].mobility notAffectedByHostState true
par myHospitalNetwork.rsu[0].mobility x 300
par myHospitalNetwork.rsu[0].mobility y 300
par myHospitalNetwork.rsu[0].mobility z 3
par myHospitalNetwork.rsu[0].mobility xOrientation 1
par myHospitalNetwork.rsu[0].mobility yOrientation 0
par myHospitalNetwork.rsu[0].mobility zOrientation 0
par myHospitalNetwork.rsu[0] typename "\"org.car2x.veins.nodes.RSU\""
par myHospitalNetwork.rsu[0] applType "\"HospitalControlApp\""
par myHospitalNetwork.rsu[0] nicType "\"Nic80211p\""
par myHospitalNetwork typename "\"gr2.simulations.hh.myHospitalNetwork\""
par myHospitalNetwork playgroundSizeX 2500m
attr unit m
par myHospitalNetwork playgroundSizeY 2500m
attr unit m
par myHospitalNetwork playgroundSizeZ 50m
attr unit m

