version 3
run General-0-20230607-10:29:09-79427
attr configname General
attr datetime 20230607-10:29:09
attr datetimef 20230607-102909
attr experiment General
attr inifile omnetpp.ini
attr iterationvars ""
attr iterationvarsd ""
attr iterationvarsf ""
attr measurement ""
attr network myHospitalNetwork
attr processid 79427
attr repetition 0
attr replication #0
attr resultdir results
attr runnumber 0
attr seedset 0
config image-path ../../../inet/images:../../../veins/images
config cmdenv-express-mode true
config cmdenv-autoflush true
config cmdenv-status-frequency 0.1s
config **.cmdenv-log-level info
config ned-path .
config image-path ../../images
config network myHospitalNetwork
config debug-on-errors true
config print-undisposed false
config sim-time-limit 3600s
config **.scalar-recording true
config **.vector-recording true
config *.playgroundSizeX 2500m
config *.playgroundSizeY 2500m
config *.playgroundSizeZ 50m
config *.annotations.draw true
config *.manager.updateInterval 0.1s
config *.manager.host "\"localhost\""
config *.manager.port 9999
config *.manager.autoShutdown true
config *.manager.launchConfig "xmldoc(\"vd012.launchd.xml\")"
config *.manager.moduleType "\"agv=org.car2x.veins.nodes.Car pedestrian=gr2.veins_inet.IPerson\""
config *.manager.moduleName "\"agv=node pedestrian=personNode\""
config *.manager.moduleDisplayString "\"agv='i=veins/node/car;is=vs' pedestrian='i=veins/node/pedestrian;is=vs'\""
config *.rsu[0].mobility.x 300
config *.rsu[0].mobility.y 300
config *.rsu[0].mobility.z 3
config *.rsu[*].applType "\"HospitalControlApp\""
config *.rsu[*].appl.headerLength "80 bit"
config *.rsu[*].appl.sendBeacons false
config *.rsu[*].appl.dataOnSch false
config *.rsu[*].nic.phy80211p.antennaOffsetZ "0 m"
config *.connectionManager.sendDirect true
config *.connectionManager.maxInterfDist 2600m
config *.connectionManager.drawMaxIntfDist false
config *.**.nic.mac1609_4.useServiceChannel true
config *.**.nic.mac1609_4.txPower 20mW
config *.**.nic.mac1609_4.bitrate 6Mbps
config *.**.nic.phy80211p.minPowerLevel -110dBm
config *.**.nic.phy80211p.useNoiseFloor true
config *.**.nic.phy80211p.noiseFloor -98dBm
config *.**.nic.phy80211p.decider "xmldoc(\"config.xml\")"
config *.**.nic.phy80211p.analogueModels "xmldoc(\"config.xml\")"
config *.**.nic.phy80211p.usePropagationDelay true
config *.**.nic.phy80211p.antenna "xmldoc(\"antenna.xml\", \"/root/Antenna[@id='monopole']\")"
config *.node[*].nic.phy80211p.antennaOffsetY "0 m"
config *.node[*].nic.phy80211p.antennaOffsetZ "1.895 m"
config *.node[*].applType "\"AGVControlApp\""
config *.node[*].appl.headerLength "80 bit"
config *.node[*].appl.sendBeacons false
config *.node[*].appl.dataOnSch true
config *.node[*].appl.beaconInterval 0.1s
config *.node[*].veinsmobility.x 0
config *.node[*].veinsmobility.y 0
config *.node[*].veinsmobility.z 0
config *.node[*].veinsmobility.setHostSpeed false
config *.node[*0].veinsmobility.accidentCount 0

vector 0 myHospitalNetwork.node[0].veinsmobility posx ETV
vector 1 myHospitalNetwork.node[0].veinsmobility posy ETV
vector 2 myHospitalNetwork.node[0].veinsmobility speed ETV
vector 3 myHospitalNetwork.node[0].veinsmobility acceleration ETV
vector 4 myHospitalNetwork.node[0].veinsmobility co2emission ETV
vector 5 myHospitalNetwork.node[1].veinsmobility posx ETV
vector 6 myHospitalNetwork.node[1].veinsmobility posy ETV
vector 7 myHospitalNetwork.node[1].veinsmobility speed ETV
vector 8 myHospitalNetwork.node[1].veinsmobility acceleration ETV
vector 9 myHospitalNetwork.node[1].veinsmobility co2emission ETV
vector 10 myHospitalNetwork.node[2].veinsmobility posx ETV
vector 11 myHospitalNetwork.node[2].veinsmobility posy ETV
vector 12 myHospitalNetwork.node[3].veinsmobility posx ETV
vector 13 myHospitalNetwork.node[3].veinsmobility posy ETV
vector 14 myHospitalNetwork.node[2].veinsmobility speed ETV
vector 15 myHospitalNetwork.node[3].veinsmobility speed ETV
vector 16 myHospitalNetwork.node[2].veinsmobility acceleration ETV
vector 17 myHospitalNetwork.node[2].veinsmobility co2emission ETV
vector 18 myHospitalNetwork.node[3].veinsmobility acceleration ETV
vector 19 myHospitalNetwork.node[3].veinsmobility co2emission ETV
vector 20 myHospitalNetwork.node[4].veinsmobility posx ETV
vector 21 myHospitalNetwork.node[4].veinsmobility posy ETV
vector 22 myHospitalNetwork.node[5].veinsmobility posx ETV
vector 23 myHospitalNetwork.node[5].veinsmobility posy ETV
vector 24 myHospitalNetwork.node[4].veinsmobility speed ETV
vector 25 myHospitalNetwork.node[5].veinsmobility speed ETV
vector 26 myHospitalNetwork.node[4].veinsmobility acceleration ETV
vector 27 myHospitalNetwork.node[4].veinsmobility co2emission ETV
vector 28 myHospitalNetwork.node[5].veinsmobility acceleration ETV
vector 29 myHospitalNetwork.node[5].veinsmobility co2emission ETV
vector 30 myHospitalNetwork.node[6].veinsmobility posx ETV
vector 31 myHospitalNetwork.node[6].veinsmobility posy ETV
vector 32 myHospitalNetwork.node[6].veinsmobility speed ETV
vector 33 myHospitalNetwork.node[6].veinsmobility acceleration ETV
vector 34 myHospitalNetwork.node[6].veinsmobility co2emission ETV
vector 35 myHospitalNetwork.node[7].veinsmobility posx ETV
vector 36 myHospitalNetwork.node[7].veinsmobility posy ETV
vector 37 myHospitalNetwork.node[7].veinsmobility speed ETV
vector 38 myHospitalNetwork.node[7].veinsmobility acceleration ETV
vector 39 myHospitalNetwork.node[7].veinsmobility co2emission ETV
vector 40 myHospitalNetwork.node[8].veinsmobility posx ETV
vector 41 myHospitalNetwork.node[8].veinsmobility posy ETV
vector 42 myHospitalNetwork.node[8].veinsmobility speed ETV
vector 43 myHospitalNetwork.node[8].veinsmobility acceleration ETV
vector 44 myHospitalNetwork.node[8].veinsmobility co2emission ETV
vector 45 myHospitalNetwork.node[9].veinsmobility posx ETV
vector 46 myHospitalNetwork.node[9].veinsmobility posy ETV
vector 47 myHospitalNetwork.node[9].veinsmobility speed ETV
vector 48 myHospitalNetwork.node[9].veinsmobility acceleration ETV
vector 49 myHospitalNetwork.node[9].veinsmobility co2emission ETV
vector 50 myHospitalNetwork.node[10].veinsmobility posx ETV
vector 51 myHospitalNetwork.node[10].veinsmobility posy ETV
vector 52 myHospitalNetwork.node[10].veinsmobility speed ETV
vector 53 myHospitalNetwork.node[10].veinsmobility acceleration ETV
vector 54 myHospitalNetwork.node[10].veinsmobility co2emission ETV
vector 55 myHospitalNetwork.node[11].veinsmobility posx ETV
vector 56 myHospitalNetwork.node[11].veinsmobility posy ETV
vector 57 myHospitalNetwork.node[11].veinsmobility speed ETV
vector 58 myHospitalNetwork.node[11].veinsmobility acceleration ETV
vector 59 myHospitalNetwork.node[11].veinsmobility co2emission ETV
4	56	0.3	8.2411490285043
4	104	0.4	10.702615822783
4	152	0.5	7.4161976788544
4	200	0.6	1.3336271612027
4	248	0.7	1.3336271612027
4	296	0.8	1.3336271612027
4	344	0.9	1.3336271612027
4	392	1	1.3336271612027
4	440	1.1	1.3336271612027
4	508	1.2	1.3336271612027
4	590	1.3	1.3336271612027
4	672	1.4	1.3336271612027
4	754	1.5	1.3336271612027
4	836	1.6	1.3336271612027
4	918	1.7	1.3336271612027
4	1000	1.8	1.3336271612027
4	1082	1.9	1.3336271612027
4	1164	2	1.3336271612027
4	1246	2.1	1.3336271612027
4	1374	2.2	1.3336271612027
4	1618	2.3	1.3336271612027
4	1905	2.4	1.3336271612027
4	2184	2.5	1.3336271612027
4	2481	2.6	1.3336271612027
4	2760	2.7	1.3336271612027
4	3058	2.8	1.3336271612027
4	3338	2.9	1.3336271612027
4	3625	3	1.3336271612027
4	3896	3.1	1.3336271612027
4	4197	3.2	1.3336271612027
4	4488	3.3	1.3336271612027
4	4780	3.4	1.3336271612027
4	5053	3.5	1.3336271612027
4	5341	3.6	1.3336271612027
4	5622	3.7	1.3336271612027
4	5923	3.8	1.3336271612027
4	6200	3.9	1.3336271612027
4	6502	4	1.3336271612027
4	6794	4.1	1.3336271612027
4	7095	4.2	1.3336271612027
4	7368	4.3	1.3336271612027
4	7669	4.4	1.3336271612027
4	7937	4.5	1.3336271612027
4	8233	4.6	1.3336271612027
4	8501	4.7	1.3336271612027
4	8783	4.8	1.3336271612027
4	9072	4.9	1.3336271612027
4	9371	5	1.3336271612027
4	9648	5.1	1.3336271612027
4	9934	5.2	1.3336271612027
4	10213	5.3	1.3336271612027
4	10502	5.4	1.3336271612027
4	10765	5.5	1.3336271612027
4	11054	5.6	1.3336271612027
4	11328	5.7	1.3336271612027
4	11621	5.8	1.3336271612027
4	11889	5.9	1.3336271612027
4	12184	6	1.3336271612027
4	12452	6.1	1.3336271612027
4	12753	6.2	1.3336271612027
4	13027	6.3	1.3336271612027
4	13313	6.4	1.3336271612027
4	13584	6.5	1.3336271612027
4	13872	6.6	1.3336271612027
4	14152	6.7	1.3336271612027
4	14452	6.8	1.3336271612027
4	14725	6.9	1.3336271612027
4	15026	7	1.3336271612027
4	15305	7.1	1.3336271612027
4	15592	7.2	1.3336271612027
4	15853	7.3	1.3336271612027
4	16150	7.4	1.3336271612027
4	16429	7.5	1.3336271612027
4	16723	7.6	1.3336271612027
4	17002	7.7	1.3336271612027
4	17294	7.8	1.3336271612027
4	17571	7.9	1.3336271612027
4	17851	8	1.3336271612027
4	18128	8.1	1.3336271612027
4	18521	8.2	1.3336271612027
4	19035	8.3	1.3336271612027
4	19538	8.4	1.3336271612027
4	20085	8.5	1.3336271612027
4	20605	8.6	1.3336271612027
4	21160	8.7	1.3336271612027
4	21717	8.8	1.3336271612027
4	22253	8.9	1.3336271612027
4	22797	9	1.3336271612027
4	23327	9.1	1.3336271612027
4	23947	9.2	1.3336271612027
4	24633	9.3	1.3336271612027
4	25288	9.4	1.3336271612027
4	26027	9.5	1.3336271612027
4	26754	9.6	1.3336271612027
4	27438	9.7	1.3336271612027
4	28093	9.8	1.3336271612027
4	28852	9.9	1.3336271612027
4	29616	10	1.3336271612027
4	30358	10.1	1.3336271612027
4	31078	10.2	1.3336271612027
4	31876	10.3	1.3336271612027
4	32614	10.4	1.3336271612027
4	33421	10.5	1.3336271612027
4	34175	10.6	1.3336271612027
4	34904	10.7	1.3336271612027
4	35674	10.8	1.3336271612027
4	36414	10.9	1.3336271612027
4	37137	11	1.3336271612027
4	37929	11.1	1.3336271612027
4	38704	11.2	1.3336271612027
4	39481	11.3	1.3336271612027
4	40233	11.4	1.3336271612027
4	40926	11.5	1.3336271612027
4	41637	11.6	1.3336271612027
4	42342	11.7	1.3336271612027
4	43051	11.8	1.3336271612027
4	43756	11.9	1.3336271612027
4	44453	12	1.3336271612027
4	45155	12.1	1.3336271612027
4	45946	12.2	1.3336271612027
4	46735	12.3	1.3336271612027
4	47624	12.4	1.3336271612027
4	48420	12.5	1.3336271612027
4	49097	12.6	1.3336271612027
4	49810	12.7	1.3336271612027
4	50512	12.8	1.3336271612027
4	51164	12.9	1.3336271612027
4	51836	13	1.3336271612027
4	52546	13.1	1.3336271612027
4	53351	13.2	1.3336271612027
4	54104	13.3	1.3336271612027
4	54836	13.4	1.3336271612027
4	55492	13.5	1.3336271612027
4	56271	13.6	1.3336271612027
4	57112	13.7	1.3336271612027
4	57860	13.8	1.3336271612027
4	58599	13.9	1.3336271612027
4	59293	14	1.3336271612027
4	60035	14.1	1.3336271612027
4	60854	14.2	1.3336271612027
4	61616	14.3	1.3336271612027
4	62408	14.4	1.3336271612027
4	63171	14.5	1.3336271612027
4	63975	14.6	1.3336271612027
4	64752	14.7	1.3336271612027
4	65561	14.8	1.3336271612027
4	66313	14.9	1.3336271612027
4	67043	15	1.3336271612027
4	67834	15.1	1.3336271612027
4	68606	15.2	1.3336271612027
4	69386	15.3	1.3336271612027
4	70098	15.4	1.3336271612027
4	70860	15.5	1.3336271612027
4	71639	15.6	1.3336271612027
4	72319	15.7	1.3336271612027
4	73069	15.8	1.3336271612027
4	73802	15.9	1.3336271612027
4	74597	16	1.3336271612027
4	75328	16.1	1.3336271612027
4	76036	16.2	1.3336271612027
4	76824	16.3	1.3336271612027
4	77597	16.4	1.3336271612027
4	78425	16.5	1.3336271612027
4	79185	16.6	1.3336271612027
4	79936	16.7	1.3336271612027
4	80672	16.8	1.3336271612027
4	81420	16.9	1.3336271612027
4	82131	17	1.3336271612027
4	82852	17.1	1.3336271612027
4	83556	17.2	1.3336271612027
4	84244	17.3	1.3336271612027
4	84988	17.4	1.3336271612027
4	85772	17.5	1.3336271612027
4	86509	17.6	1.3336271612027
4	87215	17.7	1.3336271612027
4	87908	17.8	1.3336271612027
4	88615	17.9	1.3336271612027
4	89286	18	1.3336271612027
4	90041	18.1	1.3336271612027
4	90750	18.2	1.3336271612027
4	91460	18.3	1.3336271612027
4	92165	18.4	1.3336271612027
4	92815	18.5	1.3336271612027
4	93522	18.6	1.3336271612027
4	94322	18.7	1.3336271612027
4	95097	18.8	1.3336271612027
4	95909	18.9	1.3336271612027
4	96654	19	1.3336271612027
4	97377	19.1	1.3336271612027
4	98184	19.2	1.3336271612027
4	98893	19.3	1.3336271612027
4	99581	19.4	1.3336271612027
4	100304	19.5	1.3336271612027
4	101106	19.6	1.3336271612027
4	101829	19.7	1.3336271612027
4	102530	19.8	1.3336271612027
4	103242	19.9	1.3336271612027
4	103957	20	1.3336271612027
4	104725	20.1	1.3336271612027
4	105395	20.2	1.3336271612027
4	106152	20.3	1.3336271612027
4	106846	20.4	1.3336271612027
4	107524	20.5	1.3336271612027
4	108211	20.6	1.3336271612027
4	108897	20.7	1.3336271612027
4	109659	20.8	1.3336271612027
4	110384	20.9	1.3336271612027
4	111105	21	1.3336271612027
4	111881	21.1	1.3336271612027
4	112563	21.2	1.3336271612027
4	113264	21.3	1.3336271612027
4	113979	21.4	1.3336271612027
4	114690	21.5	1.3336271612027
4	115494	21.6	1.3336271612027
4	116275	21.7	1.3336271612027
4	116969	21.8	1.3336271612027
4	117717	21.9	1.3336271612027
4	118526	22	1.3336271612027
4	119286	22.1	1.3336271612027
4	120070	22.2	1.3336271612027
4	120827	22.3	1.3336271612027
4	121516	22.4	1.3336271612027
4	122228	22.5	1.3336271612027
4	122948	22.6	1.3336271612027
4	123662	22.7	1.3336271612027
4	124429	22.8	1.3336271612027
4	125148	22.9	1.3336271612027
4	125872	23	1.3336271612027
4	126639	23.1	1.3336271612027
4	127320	23.2	1.3336271612027
4	128036	23.3	1.3336271612027
4	128750	23.4	1.3336271612027
4	129551	23.5	1.3336271612027
4	130306	23.6	1.3336271612027
4	131097	23.7	1.3336271612027
4	131787	23.8	1.3336271612027
4	132639	23.9	1.3336271612027
4	133388	24	1.3336271612027
4	134077	24.1	1.3336271612027
4	134759	24.2	1.3336271612027
4	135518	24.3	1.3336271612027
4	136209	24.4	1.3336271612027
4	136916	24.5	1.3336271612027
4	137630	24.6	1.3336271612027
4	138338	24.7	1.3336271612027
4	139000	24.8	1.3336271612027
4	139771	24.9	1.3336271612027
4	140573	25	1.3336271612027
4	141358	25.1	1.3336271612027
4	142145	25.2	1.3336271612027
4	142899	25.3	1.3336271612027
4	143670	25.4	1.3336271612027
4	144343	25.5	1.3336271612027
4	145081	25.6	1.3336271612027
4	145781	25.7	1.3336271612027
4	146508	25.8	1.3336271612027
4	147238	25.9	1.3336271612027
4	148029	26	1.3336271612027
4	148760	26.1	1.3336271612027
4	149422	26.2	1.3336271612027
4	150212	26.3	1.3336271612027
4	150983	26.4	1.3336271612027
4	151780	26.5	1.3336271612027
4	152471	26.6	1.3336271612027
4	153284	26.7	1.3336271612027
4	154037	26.8	1.3336271612027
4	154830	26.9	1.3336271612027
4	155613	27	1.3336271612027
4	156410	27.1	1.3336271612027
4	157183	27.2	1.3336271612027
4	158003	27.3	1.3336271612027
4	158684	27.4	1.3336271612027
4	159373	27.5	1.3336271612027
4	160080	27.6	1.3336271612027
4	160790	27.7	1.3336271612027
4	161484	27.8	1.3336271612027
4	162180	27.9	1.3336271612027
4	162918	28	1.3336271612027
4	163711	28.1	1.3336271612027
4	164389	28.2	1.3336271612027
4	165106	28.3	1.3336271612027
4	165827	28.4	1.3336271612027
4	166640	28.5	1.3336271612027
4	167345	28.6	1.3336271612027
4	168066	28.7	1.3336271612027
4	168878	28.8	1.3336271612027
4	169639	28.9	1.3336271612027
4	170345	29	1.3336271612027
4	171062	29.1	1.3336271612027
4	171858	29.2	1.3336271612027
4	172621	29.3	1.3336271612027
4	173323	29.4	1.3336271612027
4	174037	29.5	1.3336271612027
4	174866	29.6	1.3336271612027
4	175629	29.7	1.3336271612027
4	176458	29.8	1.3336271612027
4	177223	29.9	1.3336271612027
4	178006	30	1.3336271612027
4	178643	30.1	1.3336271612027
4	179330	30.2	1.3336271612027
4	180140	30.3	1.3336271612027
4	180932	30.4	1.3336271612027
4	181654	30.5	1.3336271612027
4	182353	30.6	1.3336271612027
4	183006	30.7	1.3336271612027
4	183708	30.8	1.3336271612027
4	184409	30.9	1.3336271612027
4	185096	31	1.3336271612027
4	185811	31.1	1.3336271612027
4	186619	31.2	1.3336271612027
4	187356	31.3	1.3336271612027
4	188022	31.4	1.3336271612027
4	188716	31.5	1.3336271612027
4	189438	31.6	1.3336271612027
4	190226	31.7	1.3336271612027
4	191000	31.8	1.3336271612027
4	191862	31.9	1.3336271612027
4	192646	32	1.3336271612027
4	193524	32.1	1.3336271612027
4	194391	32.2	1.3336271612027
4	195203	32.3	1.3336271612027
4	196040	32.4	1.3336271612027
4	196989	32.5	1.3336271612027
4	197974	32.6	1.3336271612027
4	198950	32.7	1.3336271612027
4	199897	32.8	1.3336271612027
4	200796	32.9	1.3336271612027
4	201612	33	1.3336271612027
4	202474	33.1	1.3336271612027
4	203413	33.2	1.3336271612027
4	204441	33.3	1.3336271612027
4	205500	33.4	1.3336271612027
4	206436	33.5	1.3336271612027
4	207320	33.6	1.3336271612027
4	208165	33.7	1.3336271612027
4	209105	33.8	1.3336271612027
4	210101	33.9	1.3336271612027
4	211074	34	1.3336271612027
4	211982	34.1	1.3336271612027
4	212844	34.2	1.3336271612027
4	213714	34.3	1.3336271612027
4	214669	34.4	1.3336271612027
4	215681	34.5	1.3336271612027
4	216693	34.6	1.3336271612027
4	217705	34.7	1.3336271612027
4	218677	34.8	1.3336271612027
4	219647	34.9	1.3336271612027
4	220502	35	1.3336271612027
4	221360	35.1	1.3336271612027
4	222286	35.2	1.3336271612027
4	223247	35.3	1.3336271612027
4	224219	35.4	1.3336271612027
4	225168	35.5	1.3336271612027
4	226151	35.6	1.3336271612027
4	227008	35.7	1.3336271612027
4	227901	35.8	1.3336271612027
4	228799	35.9	1.3336271612027
4	229746	36	1.3336271612027
4	230708	36.1	1.3336271612027
4	231689	36.2	1.3336271612027
4	232580	36.3	1.3336271612027
4	233601	36.4	1.3336271612027
4	234516	36.5	1.3336271612027
4	235440	36.6	1.3336271612027
4	236373	36.7	1.3336271612027
4	237365	36.8	1.3336271612027
4	238302	36.9	1.3336271612027
4	239224	37	1.3336271612027
4	240124	37.1	1.3336271612027
4	241136	37.2	1.3336271612027
4	242065	37.3	1.3336271612027
4	242958	37.4	1.3336271612027
4	243873	37.5	1.3336271612027
4	244804	37.6	1.3336271612027
4	245696	37.7	1.3336271612027
4	246622	37.8	1.3336271612027
4	247576	37.9	1.3336271612027
4	248432	38	1.3336271612027
4	249406	38.1	1.3336271612027
4	250539	38.2	1.3336271612027
4	251678	38.3	1.3336271612027
4	252921	38.4	1.3336271612027
4	254040	38.5	1.3336271612027
4	255151	38.6	1.3336271612027
4	256281	38.7	1.3336271612027
4	257316	38.8	1.3336271612027
4	258337	38.9	1.3336271612027
4	259423	39	1.3336271612027
4	260460	39.1	1.3336271612027
4	261516	39.2	1.3336271612027
4	262639	39.3	1.3336271612027
4	263698	39.4	1.3336271612027
4	264779	39.5	1.3336271612027
4	265862	39.6	1.3336271612027
4	266955	39.7	1.3336271612027
4	268200	39.8	1.3336271612027
4	269313	39.9	1.3336271612027
4	270447	40	1.3336271612027
4	271513	40.1	1.3336271612027
4	272589	40.2	1.3336271612027
4	273644	40.3	1.3336271612027
4	274765	40.4	1.3336271612027
4	275887	40.5	1.3336271612027
4	276997	40.6	1.3336271612027
4	278136	40.7	1.3336271612027
4	279209	40.8	1.3336271612027
4	280272	40.9	1.3336271612027
4	281344	41	1.3336271612027
4	282457	41.1	1.3336271612027
4	283448	41.2	1.3336271612027
4	284450	41.3	1.3336271612027
4	285591	41.4	1.3336271612027
4	286842	41.5	1.3336271612027
4	288034	41.6	1.3336271612027
4	289109	41.7	1.3336271612027
4	290164	41.8	1.3336271612027
4	291245	41.9	1.3336271612027
4	292277	42	1.3336271612027
4	293290	42.1	1.3336271612027
4	294381	42.2	1.3336271612027
4	295378	42.3	1.3336271612027
4	296450	42.4	1.3336271612027
4	297547	42.5	1.3336271612027
4	298629	42.6	1.3336271612027
4	299699	42.7	1.3336271612027
4	300852	42.8	1.3336271612027
4	302034	42.9	1.3336271612027
4	303085	43	1.3336271612027
4	304186	43.1	1.3336271612027
4	305294	43.2	1.3336271612027
4	306386	43.3	1.3336271612027
4	307611	43.4	1.3336271612027
4	308687	43.5	1.3336271612027
4	309789	43.6	1.3336271612027
4	310913	43.7	1.3336271612027
4	312031	43.8	1.3336271612027
4	313164	43.9	1.3336271612027
4	314149	44	1.3336271612027
4	315247	44.1	1.3336271612027
4	316370	44.2	1.3336271612027
4	317451	44.3	1.3336271612027
4	318574	44.4	1.3336271612027
4	319612	44.5	1.3336271612027
4	320679	44.6	1.3336271612027
4	321792	44.7	1.3336271612027
4	322951	44.8	1.3336271612027
4	324127	44.9	1.3336271612027
4	325200	45	1.3336271612027
4	326342	45.1	1.3336271612027
4	327548	45.2	1.3336271612027
4	328674	45.3	1.3336271612027
4	329700	45.4	1.3336271612027
4	330740	45.5	1.3336271612027
4	331794	45.6	1.3336271612027
4	332810	45.7	1.3336271612027
4	333857	45.8	1.3336271612027
4	334853	45.9	1.3336271612027
4	335954	46	1.3336271612027
4	337016	46.1	1.3336271612027
4	338141	46.2	1.3336271612027
4	339151	46.3	1.3336271612027
4	340200	46.4	1.3336271612027
4	341286	46.5	1.3336271612027
4	342353	46.6	1.3336271612027
4	343374	46.7	1.3336271612027
4	344520	46.8	1.3336271612027
4	345673	46.9	1.3336271612027
4	346723	47	1.3336271612027
4	347890	47.1	1.3336271612027
4	348959	47.2	1.3336271612027
4	350027	47.3	1.3336271612027
4	351074	47.4	1.3336271612027
4	352120	47.5	1.3336271612027
4	353086	47.6	1.3336271612027
4	354119	47.7	1.3336271612027
4	355256	47.8	1.3336271612027
4	356230	47.9	1.3336271612027
4	357235	48	1.3336271612027
4	358264	48.1	1.3336271612027
4	359376	48.2	1.3336271612027
4	360549	48.3	1.3336271612027
4	361661	48.4	1.3336271612027
4	362760	48.5	1.3336271612027
4	363889	48.6	1.3336271612027
4	364994	48.7	1.3336271612027
4	366088	48.8	1.3336271612027
4	367309	48.9	1.3336271612027
4	368431	49	1.3336271612027
4	369610	49.1	1.3336271612027
4	370633	49.2	1.3336271612027
4	371758	49.3	1.3336271612027
4	372885	49.4	1.3336271612027
4	373940	49.5	1.3336271612027
4	374942	49.6	1.3336271612027
4	375945	49.7	1.3336271612027
4	377001	49.8	1.3336271612027
4	378131	49.9	1.3336271612027
4	379146	50	1.3336271612027
4	380154	50.1	1.3336271612027
4	381106	50.2	1.3336271612027
4	382178	50.3	1.3336271612027
4	383280	50.4	1.3336271612027
4	384309	50.5	1.3336271612027
4	385349	50.6	1.3336271612027
4	386386	50.7	1.3336271612027
4	387522	50.8	1.3336271612027
4	388590	50.9	1.3336271612027
4	389684	51	1.3336271612027
4	390789	51.1	1.3336271612027
4	391902	51.2	1.3336271612027
4	393005	51.3	1.3336271612027
4	394003	51.4	1.3336271612027
4	395076	51.5	1.3336271612027
4	396238	51.6	1.3336271612027
4	397262	51.7	1.3336271612027
4	398390	51.8	1.3336271612027
4	399469	51.9	1.3336271612027
4	400497	52	1.3336271612027
4	401543	52.1	1.3336271612027
4	402570	52.2	1.3336271612027
4	403718	52.3	1.3336271612027
4	404977	52.4	1.3336271612027
4	406199	52.5	1.3336271612027
4	407299	52.6	1.3336271612027
4	408341	52.7	1.3336271612027
4	409510	52.8	1.3336271612027
4	410628	52.9	1.3336271612027
4	411625	53	1.3336271612027
4	412670	53.1	1.3336271612027
4	413844	53.2	1.3336271612027
4	414938	53.3	1.3336271612027
4	415974	53.4	1.3336271612027
4	417127	53.5	1.3336271612027
4	418187	53.6	1.3336271612027
4	419259	53.7	1.3336271612027
4	420224	53.8	1.3336271612027
4	421319	53.9	1.3336271612027
4	422428	54	1.3336271612027
4	423548	54.1	1.3336271612027
4	424772	54.2	1.3336271612027
4	425832	54.3	1.3336271612027
4	426870	54.4	1.3336271612027
4	427918	54.5	1.3336271612027
4	429059	54.6	1.3336271612027
4	430154	54.7	1.3336271612027
4	431194	54.8	1.3336271612027
4	432246	54.9	1.3336271612027
4	433366	55	1.3336271612027
4	434454	55.1	1.3336271612027
4	435521	55.2	1.3336271612027
4	436657	55.3	1.3336271612027
4	437784	55.4	1.3336271612027
4	438909	55.5	1.3336271612027
4	440005	55.6	1.3336271612027
4	441024	55.7	1.3336271612027
4	442068	55.8	1.3336271612027
4	443132	55.9	1.3336271612027
4	444175	56	1.3336271612027
4	445240	56.1	1.3336271612027
4	446214	56.2	1.3336271612027
4	447243	56.3	1.3336271612027
4	448398	56.4	1.3336271612027
4	449635	56.5	1.3336271612027
4	450744	56.6	1.3336271612027
4	451760	56.7	1.3336271612027
4	452778	56.8	1.3336271612027
4	453938	56.9	1.3336271612027
4	455086	57	1.3336271612027
4	456243	57.1	1.3336271612027
4	457377	57.2	1.3336271612027
4	458508	57.3	1.3336271612027
4	459571	57.4	1.3336271612027
4	460608	57.5	1.3336271612027
4	461699	57.6	1.3336271612027
4	462826	57.7	1.3336271612027
4	463962	57.8	1.3336271612027
4	465040	57.9	1.3336271612027
4	466099	58	1.3336271612027
4	467225	58.1	1.3336271612027
4	468267	58.2	1.3336271612027
4	469333	58.3	1.3336271612027
4	470456	58.4	1.3336271612027
4	471498	58.5	1.3336271612027
4	472604	58.6	1.3336271612027
4	473628	58.7	1.3336271612027
4	474663	58.8	1.3336271612027
4	475846	58.9	1.3336271612027
4	476895	59	1.3336271612027
4	477903	59.1	1.3336271612027
4	479049	59.2	1.3336271612027
4	480118	59.3	1.3336271612027
4	481240	59.4	1.3336271612027
4	482305	59.5	1.3336271612027
4	483384	59.6	1.3336271612027
4	484375	59.7	1.3336271612027
4	485498	59.8	1.3336271612027
4	486655	59.9	1.3336271612027
4	487780	60	1.3336271612027
4	489054	60.1	1.3336271612027
4	490230	60.2	1.3336271612027
4	491411	60.3	1.3336271612027
4	492633	60.4	1.3336271612027
4	493737	60.5	1.3336271612027
4	494803	60.6	1.3336271612027
4	495873	60.7	1.3336271612027
4	497031	60.8	1.3336271612027
4	498257	60.9	1.3336271612027
4	499411	61	1.3336271612027
4	500438	61.1	1.3336271612027
4	501496	61.2	1.3336271612027
4	502659	61.3	1.3336271612027
4	503828	61.4	1.3336271612027
4	505015	61.5	1.3336271612027
4	506128	61.6	1.3336271612027
4	507195	61.7	1.3336271612027
4	508351	61.8	1.3336271612027
4	509518	61.9	1.3336271612027
4	510569	62	1.3336271612027
4	511657	62.1	1.3336271612027
4	512949	62.2	1.3336271612027
4	514359	62.3	1.3336271612027
4	515692	62.4	1.3336271612027
4	517028	62.5	1.3336271612027
4	518417	62.6	1.3336271612027
4	519720	62.7	1.3336271612027
4	521015	62.8	1.3336271612027
4	522299	62.9	1.3336271612027
4	523655	63	1.3336271612027
4	524958	63.1	1.3336271612027
4	526240	63.2	1.3336271612027
4	527446	63.3	1.3336271612027
4	528625	63.4	1.3336271612027
4	529898	63.5	1.3336271612027
4	531132	63.6	1.3336271612027
4	532471	63.7	1.3336271612027
4	533816	63.8	1.3336271612027
4	535232	63.9	1.3336271612027
4	536570	64	1.3336271612027
4	537923	64.1	1.3336271612027
4	539363	64.2	1.3336271612027
4	540666	64.3	1.3336271612027
4	542041	64.4	1.3336271612027
4	543241	64.5	1.3336271612027
4	544561	64.6	1.3336271612027
4	545855	64.7	1.3336271612027
4	547254	64.8	1.3336271612027
4	548684	64.9	1.3336271612027
4	549949	65	1.3336271612027
4	551323	65.1	1.3336271612027
4	552552	65.2	1.3336271612027
4	553731	65.3	1.3336271612027
4	555068	65.4	1.3336271612027
4	556446	65.5	1.3336271612027
4	557774	65.6	1.3336271612027
4	559162	65.7	1.3336271612027
4	560560	65.8	1.3336271612027
4	561951	65.9	1.3336271612027
4	563246	66	1.3336271612027
4	564520	66.1	1.3336271612027
4	565723	66.2	1.3336271612027
4	567038	66.3	1.3336271612027
4	568326	66.4	1.3336271612027
4	569597	66.5	1.3336271612027
4	570897	66.6	1.3336271612027
4	572253	66.7	1.3336271612027
4	573631	66.8	1.3336271612027
4	574889	66.9	1.3336271612027
4	576086	67	1.3336271612027
4	577323	67.1	1.3336271612027
4	578639	67.2	1.3336271612027
4	579997	67.3	1.3336271612027
4	581423	67.4	1.3336271612027
4	582844	67.5	1.3336271612027
4	584160	67.6	1.3336271612027
4	585584	67.7	1.3336271612027
4	586822	67.8	1.3336271612027
4	588111	67.9	1.3336271612027
4	589632	68	1.3336271612027
4	591082	68.1	1.3336271612027
4	592422	68.2	1.3336271612027
4	593921	68.3	1.3336271612027
4	595486	68.4	1.3336271612027
4	596966	68.5	1.3336271612027
4	598537	68.6	1.3336271612027
4	600161	68.7	1.3336271612027
4	601596	68.8	1.3336271612027
4	603073	68.9	1.3336271612027
4	604664	69	1.3336271612027
4	606168	69.1	1.3336271612027
4	607618	69.2	1.3336271612027
4	609041	69.3	1.3336271612027
4	610658	69.4	1.3336271612027
4	612132	69.5	1.3336271612027
4	613602	69.6	1.3336271612027
4	615113	69.7	1.3336271612027
4	616710	69.8	1.3336271612027
4	618357	69.9	1.3336271612027
4	619848	70	1.3336271612027
4	621290	70.1	1.3336271612027
4	622691	70.2	1.3336271612027
4	624184	70.3	1.3336271612027
4	625795	70.4	1.3336271612027
4	627431	70.5	1.3336271612027
4	628918	70.6	1.3336271612027
4	630478	70.7	1.3336271612027
4	632179	70.8	1.3336271612027
4	633809	70.9	1.3336271612027
4	635426	71	1.3336271612027
4	636933	71.1	1.3336271612027
4	638502	71.2	1.3336271612027
4	639913	71.3	1.3336271612027
4	641481	71.4	1.3336271612027
4	643122	71.5	1.3336271612027
4	644715	71.6	1.3336271612027
4	646293	71.7	1.3336271612027
4	647989	71.8	1.3336271612027
4	649495	71.9	1.3336271612027
4	650964	72	1.3336271612027
4	652424	72.1	1.3336271612027
4	653859	72.2	1.3336271612027
4	655466	72.3	1.3336271612027
4	656960	72.4	1.3336271612027
4	658573	72.5	1.3336271612027
4	660070	72.6	1.3336271612027
4	661571	72.7	1.3336271612027
4	663233	72.8	1.3336271612027
4	664763	72.9	1.3336271612027
4	666354	73	1.3336271612027
4	667879	73.1	1.3336271612027
4	669474	73.2	1.3336271612027
4	670935	73.3	1.3336271612027
4	672408	73.4	1.3336271612027
4	674047	73.5	1.3336271612027
4	675644	73.6	1.3336271612027
4	677249	73.7	1.3336271612027
4	678886	73.8	1.3336271612027
4	680431	73.9	1.3336271612027
4	681909	74	1.3336271612027
4	683457	74.1	1.3336271612027
4	684969	74.2	1.3336271612027
4	686599	74.3	1.3336271612027
4	688081	74.4	1.3336271612027
4	689610	74.5	1.3336271612027
4	691207	74.6	1.3336271612027
4	692689	74.7	1.3336271612027
4	694209	74.8	1.3336271612027
4	695693	74.9	1.3336271612027
4	697364	75	1.3336271612027
4	698890	75.1	1.3336271612027
4	700285	75.2	1.3336271612027
4	701799	75.3	1.3336271612027
4	703207	75.4	1.3336271612027
4	704725	75.5	1.3336271612027
4	706208	75.6	1.3336271612027
4	707816	75.7	1.3336271612027
4	709347	75.8	1.3336271612027
4	710809	75.9	1.3336271612027
4	712431	76	1.3336271612027
4	714033	76.1	1.3336271612027
4	715536	76.2	1.3336271612027
4	717143	76.3	1.3336271612027
4	718758	76.4	1.3336271612027
4	720203	76.5	1.3336271612027
4	721737	76.6	1.3336271612027
4	723234	76.7	1.3336271612027
4	724757	76.8	1.3336271612027
4	726333	76.9	1.3336271612027
4	728031	77	1.3336271612027
4	729555	77.1	1.3336271612027
4	731099	77.2	1.3336271612027
4	732637	77.3	1.3336271612027
4	734290	77.4	1.3336271612027
4	735912	77.5	1.3336271612027
4	737451	77.6	1.3336271612027
4	739031	77.7	1.3336271612027
4	740671	77.8	1.3336271612027
4	742394	77.9	1.3336271612027
4	744015	78	1.3336271612027
4	745735	78.1	1.3336271612027
4	747383	78.2	1.3336271612027
4	749040	78.3	1.3336271612027
4	750531	78.4	1.3336271612027
4	752050	78.5	1.3336271612027
4	753526	78.6	1.3336271612027
4	755147	78.7	1.3336271612027
4	756603	78.8	1.3336271612027
4	758145	78.9	1.3336271612027
4	759667	79	1.3336271612027
4	761232	79.1	1.3336271612027
4	762837	79.2	1.3336271612027
4	764326	79.3	1.3336271612027
4	765888	79.4	1.3336271612027
4	767534	79.5	1.3336271612027
4	769123	79.6	1.3336271612027
4	770823	79.7	1.3336271612027
4	772380	79.8	1.3336271612027
4	773975	79.9	1.3336271612027
4	775458	80	1.3336271612027
4	777154	80.1	1.3336271612027
4	778750	80.2	1.3336271612027
4	780166	80.3	1.3336271612027
4	781715	80.4	1.3336271612027
4	783195	80.5	1.3336271612027
4	784846	80.6	1.3336271612027
4	786472	80.7	1.3336271612027
4	788030	80.8	1.3336271612027
4	789714	80.9	1.3336271612027
4	791224	81	1.3336271612027
4	792772	81.1	1.3336271612027
4	794278	81.2	1.3336271612027
4	795888	81.3	1.3336271612027
4	797449	81.4	1.3336271612027
4	799098	81.5	1.3336271612027
4	800626	81.6	1.3336271612027
4	802123	81.7	1.3336271612027
4	803653	81.8	1.3336271612027
4	805188	81.9	1.3336271612027
4	806824	82	1.3336271612027
4	808442	82.1	1.3336271612027
4	810149	82.2	1.3336271612027
4	811634	82.3	1.3336271612027
4	813177	82.4	1.3336271612027
4	814787	82.5	1.3336271612027
4	816381	82.6	1.3336271612027
4	817865	82.7	1.3336271612027
4	819304	82.8	1.3336271612027
4	820737	82.9	1.3336271612027
4	822339	83	1.3336271612027
4	823844	83.1	1.3336271612027
4	825341	83.2	1.3336271612027
4	827061	83.3	1.3336271612027
4	828674	83.4	1.3336271612027
4	830302	83.5	1.3336271612027
4	831895	83.6	1.3336271612027
4	833361	83.7	1.3336271612027
4	834892	83.8	1.3336271612027
4	836541	83.9	1.3336271612027
4	838029	84	1.3336271612027
4	839563	84.1	1.3336271612027
4	841193	84.2	1.3336271612027
4	842789	84.3	1.3336271612027
4	844378	84.4	1.3336271612027
4	845946	84.5	1.3336271612027
4	847588	84.6	1.3336271612027
4	849225	84.7	1.3336271612027
4	850770	84.8	1.3336271612027
4	852261	84.9	1.3336271612027
4	853862	85	1.3336271612027
4	855567	85.1	1.3336271612027
4	857135	85.2	1.3336271612027
4	858792	85.3	1.3336271612027
4	860353	85.4	1.3336271612027
4	861844	85.5	1.3336271612027
4	863411	85.6	1.3336271612027
4	865134	85.7	1.3336271612027
4	866690	85.8	1.3336271612027
4	868219	85.9	1.3336271612027
4	869838	86	1.3336271612027
4	871273	86.1	1.3336271612027
4	872900	86.2	1.3336271612027
4	874434	86.3	1.3336271612027
4	875922	86.4	1.3336271612027
4	877534	86.5	1.3336271612027
4	879128	86.6	1.3336271612027
4	880761	86.7	1.3336271612027
4	882338	86.8	1.3336271612027
4	884038	86.9	1.3336271612027
4	885641	87	1.3336271612027
4	887186	87.1	1.3336271612027
4	888895	87.2	1.3336271612027
4	890401	87.3	1.3336271612027
4	892091	87.4	1.3336271612027
4	893697	87.5	1.3336271612027
4	895382	87.6	1.3336271612027
4	897021	87.7	1.3336271612027
4	898536	87.8	1.3336271612027
4	900152	87.9	1.3336271612027
4	901757	88	1.3336271612027
4	903379	88.1	1.3336271612027
4	904903	88.2	1.3336271612027
4	906534	88.3	1.3336271612027
4	908021	88.4	1.3336271612027
4	909523	88.5	1.3336271612027
4	911224	88.6	1.3336271612027
4	912931	88.7	1.3336271612027
4	914537	88.8	1.3336271612027
4	915983	88.9	1.3336271612027
4	917656	89	1.3336271612027
4	919207	89.1	1.3336271612027
4	920842	89.2	1.3336271612027
4	922514	89.3	1.3336271612027
4	924123	89.4	1.3336271612027
4	925597	89.5	1.3336271612027
4	927124	89.6	1.3336271612027
4	928610	89.7	1.3336271612027
4	930205	89.8	1.3336271612027
4	931672	89.9	1.3336271612027
4	933287	90	1.3336271612027
4	934874	90.1	1.3336271612027
4	936409	90.2	1.3336271612027
4	937859	90.3	1.3336271612027
4	939348	90.4	1.3336271612027
4	940848	90.5	1.3336271612027
4	942532	90.6	1.3336271612027
4	943931	90.7	1.3336271612027
4	945383	90.8	1.3336271612027
4	946851	90.9	1.3336271612027
4	948424	91	1.3336271612027
4	949968	91.1	1.3336271612027
4	951588	91.2	1.3336271612027
4	953271	91.3	1.3336271612027
4	954848	91.4	1.3336271612027
4	956409	91.5	1.3336271612027
4	958154	91.6	1.3336271612027
4	959830	91.7	1.3336271612027
4	961524	91.8	1.3336271612027
4	963149	91.9	1.3336271612027
4	964693	92	1.3336271612027
4	966280	92.1	1.3336271612027
4	967785	92.2	1.3336271612027
4	969201	92.3	1.3336271612027
4	970747	92.4	1.3336271612027
4	972205	92.5	1.3336271612027
4	973738	92.6	1.3336271612027
4	975272	92.7	1.3336271612027
4	976882	92.8	1.3336271612027
4	978477	92.9	1.3336271612027
4	979978	93	1.3336271612027
4	981598	93.1	1.3336271612027
4	983134	93.2	1.3336271612027
4	984666	93.3	1.3336271612027
4	986185	93.4	1.3336271612027
4	987815	93.5	1.3336271612027
4	989346	93.6	1.3336271612027
4	990813	93.7	1.3336271612027
4	992280	93.8	1.3336271612027
4	993793	93.9	1.3336271612027
4	995437	94	1.3336271612027
4	997029	94.1	1.3336271612027
4	998416	94.2	1.3336271612027
4	1000047	94.3	1.3336271612027
4	1001759	94.4	1.3336271612027
4	1003336	94.5	1.3336271612027
4	1005011	94.6	1.3336271612027
4	1006694	94.7	1.3336271612027
4	1008188	94.8	1.3336271612027
4	1009735	94.9	1.3336271612027
4	1011344	95	1.3336271612027
4	1012855	95.1	1.3336271612027
4	1014362	95.2	1.3336271612027
4	1016068	95.3	1.3336271612027
4	1017670	95.4	1.3336271612027
4	1019246	95.5	1.3336271612027
4	1020898	95.6	1.3336271612027
4	1022500	95.7	1.3336271612027
4	1024013	95.8	1.3336271612027
4	1025495	95.9	1.3336271612027
4	1027122	96	1.3336271612027
4	1028774	96.1	1.3336271612027
4	1030427	96.2	1.3336271612027
4	1032009	96.3	1.3336271612027
4	1033564	96.4	1.3336271612027
4	1035143	96.5	1.3336271612027
4	1036697	96.6	1.3336271612027
4	1038326	96.7	1.3336271612027
4	1040000	96.8	1.3336271612027
4	1041502	96.9	1.3336271612027
4	1042944	97	1.3336271612027
4	1044440	97.1	1.3336271612027
4	1046128	97.2	1.3336271612027
4	1047627	97.3	1.3336271612027
4	1049374	97.4	1.3336271612027
4	1050994	97.5	1.3336271612027
4	1052681	97.6	1.3336271612027
4	1054296	97.7	1.3336271612027
4	1055752	97.8	1.3336271612027
4	1057390	97.9	1.3336271612027
4	1059036	98	1.3336271612027
4	1060614	98.1	1.3336271612027
4	1062281	98.2	1.3336271612027
4	1064152	98.3	1.3336271612027
4	1065853	98.4	1.3336271612027
4	1067619	98.5	1.3336271612027
4	1069309	98.6	1.3336271612027
4	1071018	98.7	1.3336271612027
4	1072837	98.8	1.3336271612027
4	1074641	98.9	1.3336271612027
4	1076515	99	1.3336271612027
4	1078288	99.1	1.3336271612027
4	1080042	99.2	1.3336271612027
4	1081802	99.3	1.3336271612027
4	1083680	99.4	1.3336271612027
4	1085364	99.5	1.3336271612027
4	1087203	99.6	1.3336271612027
4	1089109	99.7	1.3336271612027
4	1090865	99.8	1.3336271612027
4	1092474	99.9	1.3336271612027
4	1094174	100	1.3336271612027
4	1095943	100.1	1.3336271612027
4	1097722	100.2	1.3336271612027
4	1099581	100.3	1.3336271612027
4	1101367	100.4	1.3336271612027
4	1103231	100.5	1.3336271612027
4	1104990	100.6	1.3336271612027
4	1106714	100.7	1.3336271612027
4	1108478	100.8	1.3336271612027
4	1110344	100.9	1.3336271612027
4	1112142	101	1.3336271612027
4	1113995	101.1	1.3336271612027
4	1115889	101.2	1.3336271612027
4	1117673	101.3	1.3336271612027
4	1119446	101.4	1.3336271612027
4	1121276	101.5	1.3336271612027
4	1122986	101.6	1.3336271612027
4	1124666	101.7	1.3336271612027
4	1126502	101.8	1.3336271612027
4	1128237	101.9	1.3336271612027
4	1129877	102	1.3336271612027
4	1131743	102.1	1.3336271612027
4	1133587	102.2	1.3336271612027
4	1135348	102.3	1.3336271612027
4	1137201	102.4	1.3336271612027
4	1138876	102.5	1.3336271612027
4	1140575	102.6	1.3336271612027
4	1142236	102.7	1.3336271612027
4	1143858	102.8	1.3336271612027
4	1145539	102.9	1.3336271612027
4	1147296	103	1.3336271612027
4	1149128	103.1	1.3336271612027
4	1150905	103.2	1.3336271612027
4	1152591	103.3	1.3336271612027
4	1154327	103.4	1.3336271612027
4	1156247	103.5	1.3336271612027
4	1157882	103.6	1.3336271612027
4	1159688	103.7	1.3336271612027
4	1161600	103.8	1.3336271612027
4	1163426	103.9	1.3336271612027
4	1165086	104	1.3336271612027
4	1166765	104.1	1.3336271612027
4	1168482	104.2	1.3336271612027
4	1170146	104.3	1.3336271612027
4	1171843	104.4	1.3336271612027
4	1173638	104.5	1.3336271612027
4	1175454	104.6	1.3336271612027
4	1177343	104.7	1.3336271612027
4	1179007	104.8	1.3336271612027
4	1180586	104.9	1.3336271612027
4	1182205	105	1.3336271612027
4	1184004	105.1	1.3336271612027
4	1185915	105.2	1.3336271612027
4	1187611	105.3	1.3336271612027
4	1189300	105.4	1.3336271612027
4	1191010	105.5	1.3336271612027
4	1192779	105.6	1.3336271612027
4	1194469	105.7	1.3336271612027
4	1196248	105.8	1.3336271612027
4	1198018	105.9	1.3336271612027
4	1199827	106	1.3336271612027
4	1201601	106.1	1.3336271612027
4	1203314	106.2	1.3336271612027
4	1204942	106.3	1.3336271612027
4	1206765	106.4	1.3336271612027
4	1208678	106.5	1.3336271612027
4	1210521	106.6	1.3336271612027
4	1212411	106.7	1.3336271612027
4	1214187	106.8	1.3336271612027
4	1215870	106.9	1.3336271612027
4	1217740	107	1.3336271612027
4	1219571	107.1	1.3336271612027
4	1221391	107.2	1.3336271612027
4	1223103	107.3	1.3336271612027
4	1224818	107.4	1.3336271612027
4	1226551	107.5	1.3336271612027
4	1228254	107.6	1.3336271612027
4	1230080	107.7	1.3336271612027
4	1231866	107.8	1.3336271612027
4	1233572	107.9	1.3336271612027
4	1235376	108	1.3336271612027
4	1237163	108.1	1.3336271612027
4	1239028	108.2	1.3336271612027
4	1240697	108.3	1.3336271612027
4	1242325	108.4	1.3336271612027
4	1244049	108.5	1.3336271612027
4	1245780	108.6	1.3336271612027
4	1247569	108.7	1.3336271612027
4	1249384	108.8	1.3336271612027
4	1251110	108.9	1.3336271612027
4	1252826	109	1.3336271612027
4	1254597	109.1	1.3336271612027
4	1256220	109.2	1.3336271612027
4	1257964	109.3	1.3336271612027
4	1259730	109.4	1.3336271612027
4	1261356	109.5	1.3336271612027
4	1262955	109.6	1.3336271612027
4	1264674	109.7	1.3336271612027
4	1266367	109.8	1.3336271612027
4	1268136	109.9	1.3336271612027
4	1269832	110	1.3336271612027
4	1271511	110.1	1.3336271612027
4	1273147	110.2	1.3336271612027
4	1274872	110.3	1.3336271612027
4	1276663	110.4	1.3336271612027
4	1278539	110.5	1.3336271612027
4	1280144	110.6	1.3336271612027
4	1281798	110.7	1.3336271612027
4	1283579	110.8	1.3336271612027
4	1285301	110.9	1.3336271612027
4	1287125	111	1.3336271612027
4	1288912	111.1	1.3336271612027
4	1290728	111.2	1.3336271612027
4	1292487	111.3	1.3336271612027
4	1294212	111.4	1.3336271612027
4	1295871	111.5	1.3336271612027
4	1297544	111.6	1.3336271612027
4	1299215	111.7	1.3336271612027
4	1301002	111.8	1.3336271612027
4	1302728	111.9	1.3336271612027
4	1304506	112	1.3336271612027
4	1306359	112.1	1.3336271612027
4	1308019	112.2	1.3336271612027
4	1309683	112.3	1.3336271612027
4	1311471	112.4	1.3336271612027
4	1313256	112.5	1.3336271612027
4	1315000	112.6	1.3336271612027
4	1316695	112.7	1.3336271612027
4	1318408	112.8	1.3336271612027
4	1320075	112.9	1.3336271612027
4	1321801	113	1.3336271612027
4	1323480	113.1	1.3336271612027
4	1325264	113.2	1.3336271612027
4	1326957	113.3	1.3336271612027
4	1328588	113.4	1.3336271612027
4	1330253	113.5	1.3336271612027
4	1332078	113.6	1.3336271612027
4	1333730	113.7	1.3336271612027
4	1335444	113.8	1.3336271612027
4	1337078	113.9	1.3336271612027
4	1338797	114	1.3336271612027
4	1340544	114.1	1.3336271612027
4	1342288	114.2	1.3336271612027
4	1343955	114.3	1.3336271612027
4	1345741	114.4	1.3336271612027
4	1347454	114.5	1.3336271612027
4	1349132	114.6	1.3336271612027
4	1350842	114.7	1.3336271612027
4	1352527	114.8	1.3336271612027
4	1354245	114.9	1.3336271612027
4	1356069	115	1.3336271612027
4	1357814	115.1	1.3336271612027
4	1359514	115.2	1.3336271612027
4	1361206	115.3	1.3336271612027
4	1362915	115.4	1.3336271612027
4	1364638	115.5	1.3336271612027
4	1366477	115.6	1.3336271612027
4	1368269	115.7	1.3336271612027
4	1369960	115.8	1.3336271612027
4	1371678	115.9	1.3336271612027
4	1373390	116	1.3336271612027
4	1375146	116.1	1.3336271612027
4	1376837	116.2	1.3336271612027
4	1378633	116.3	1.3336271612027
4	1380328	116.4	1.3336271612027
4	1382000	116.5	1.3336271612027
4	1383799	116.6	1.3336271612027
4	1385617	116.7	1.3336271612027
4	1387436	116.8	1.3336271612027
4	1389195	116.9	1.3336271612027
4	1390966	117	1.3336271612027
4	1392664	117.1	1.3336271612027
4	1394354	117.2	1.3336271612027
4	1395991	117.3	1.3336271612027
4	1397718	117.4	1.3336271612027
4	1399447	117.5	1.3336271612027
4	1401170	117.6	1.3336271612027
4	1402912	117.7	1.3336271612027
4	1404675	117.8	1.3336271612027
4	1406469	117.9	1.3336271612027
4	1408148	118	1.3336271612027
4	1409796	118.1	1.3336271612027
4	1411416	118.2	1.3336271612027
4	1413164	118.3	1.3336271612027
4	1414931	118.4	1.3336271612027
4	1416692	118.5	1.3336271612027
4	1418433	118.6	1.3336271612027
4	1420058	118.7	1.3336271612027
4	1421787	118.8	1.3336271612027
4	1423544	118.9	1.3336271612027
4	1425224	119	1.3336271612027
4	1426848	119.1	1.3336271612027
4	1428455	119.2	1.3336271612027
4	1430081	119.3	1.3336271612027
4	1431712	119.4	1.3336271612027
4	1433566	119.5	1.3336271612027
4	1435330	119.6	1.3336271612027
4	1437119	119.7	1.3336271612027
4	1438862	119.8	1.3336271612027
4	1440530	119.9	1.3336271612027
4	1442318	120	1.3336271612027
4	1443943	120.1	1.3336271612027
4	1445754	120.2	1.3336271612027
4	1447447	120.3	1.3336271612027
4	1449147	120.4	1.3336271612027
4	1450934	120.5	1.3336271612027
4	1452666	120.6	1.3336271612027
4	1454360	120.7	1.3336271612027
4	1456122	120.8	1.3336271612027
4	1457866	120.9	1.3336271612027
4	1459641	121	1.3336271612027
4	1461297	121.1	1.3336271612027
4	1462992	121.2	1.3336271612027
4	1464732	121.3	1.3336271612027
4	1466427	121.4	1.3336271612027
4	1468194	121.5	1.3336271612027
4	1469903	121.6	1.3336271612027
4	1471694	121.7	1.3336271612027
4	1473514	121.8	1.3336271612027
4	1475385	121.9	1.3336271612027
4	1477106	122	1.3336271612027
4	1478781	122.1	1.3336271612027
4	1480655	122.2	1.3336271612027
4	1482338	122.3	1.3336271612027
4	1484206	122.4	1.3336271612027
4	1485946	122.5	1.3336271612027
4	1487708	122.6	1.3336271612027
4	1489325	122.7	1.3336271612027
4	1490978	122.8	1.3336271612027
4	1492779	122.9	1.3336271612027
4	1494533	123	1.3336271612027
4	1496189	123.1	1.3336271612027
4	1497904	123.2	1.3336271612027
4	1499647	123.3	1.3336271612027
4	1501299	123.4	1.3336271612027
4	1503116	123.5	1.3336271612027
4	1504910	123.6	1.3336271612027
4	1506622	123.7	1.3336271612027
4	1508341	123.8	1.3336271612027
4	1510158	123.9	1.3336271612027
4	1512013	124	1.3336271612027
4	1513764	124.1	1.3336271612027
4	1515443	124.2	1.3336271612027
4	1517267	124.3	1.3336271612027
4	1519004	124.4	1.3336271612027
4	1520759	124.5	1.3336271612027
4	1522542	124.6	1.3336271612027
4	1524222	124.7	1.3336271612027
4	1525936	124.8	1.3336271612027
4	1527655	124.9	1.3336271612027
4	1529421	125	1.3336271612027
4	1531127	125.1	1.3336271612027
4	1532814	125.2	1.3336271612027
4	1534476	125.3	1.3336271612027
4	1536079	125.4	1.3336271612027
4	1537852	125.5	1.3336271612027
4	1539510	125.6	1.3336271612027
4	1541159	125.7	1.3336271612027
4	1542959	125.8	1.3336271612027
4	1544732	125.9	1.3336271612027
4	1546544	126	1.3336271612027
4	1548329	126.1	1.3336271612027
4	1550131	126.2	1.3336271612027
4	1551853	126.3	1.3336271612027
4	1553555	126.4	1.3336271612027
4	1555250	126.5	1.3336271612027
4	1556938	126.6	1.3336271612027
4	1558697	126.7	1.3336271612027
4	1560360	126.8	1.3336271612027
4	1562082	126.9	1.3336271612027
4	1563742	127	1.3336271612027
4	1565462	127.1	1.3336271612027
4	1567137	127.2	1.3336271612027
4	1568843	127.3	1.3336271612027
4	1570601	127.4	1.3336271612027
4	1572252	127.5	1.3336271612027
4	1574078	127.6	1.3336271612027
4	1575897	127.7	1.3336271612027
4	1577753	127.8	1.3336271612027
4	1579551	127.9	1.3336271612027
4	1581372	128	1.3336271612027
4	1583239	128.1	1.3336271612027
4	1585019	128.2	1.3336271612027
4	1586721	128.3	1.3336271612027
4	1588569	128.4	1.3336271612027
4	1590420	128.5	1.3336271612027
4	1592155	128.6	1.3336271612027
4	1593837	128.7	1.3336271612027
4	1595466	128.8	1.3336271612027
4	1597112	128.9	1.3336271612027
4	1598834	129	1.3336271612027
4	1600623	129.1	1.3336271612027
4	1602419	129.2	1.3336271612027
4	1604035	129.3	1.3336271612027
4	1605729	129.4	1.3336271612027
4	1607413	129.5	1.3336271612027
4	1609112	129.6	1.3336271612027
4	1610887	129.7	1.3336271612027
4	1612570	129.8	1.3336271612027
4	1614269	129.9	1.3336271612027
4	1615983	130	1.3336271612027
4	1617734	130.1	1.3336271612027
4	1619478	130.2	1.3336271612027
4	1621210	130.3	1.3336271612027
4	1622964	130.4	1.3336271612027
4	1624705	130.5	1.3336271612027
4	1626535	130.6	1.3336271612027
4	1628388	130.7	1.3336271612027
4	1630080	130.8	1.3336271612027
4	1631727	130.9	1.3336271612027
4	1633506	131	1.3336271612027
4	1635293	131.1	1.3336271612027
4	1636976	131.2	1.3336271612027
4	1638752	131.3	1.3336271612027
4	1640505	131.4	1.3336271612027
4	1642260	131.5	1.3336271612027
4	1643870	131.6	1.3336271612027
4	1645740	131.7	1.3336271612027
4	1647530	131.8	1.3336271612027
4	1649393	131.9	1.3336271612027
4	1651261	132	1.3336271612027
4	1653019	132.1	1.3336271612027
4	1654780	132.2	1.3336271612027
4	1656523	132.3	1.3336271612027
4	1658298	132.4	1.3336271612027
4	1659995	132.5	1.3336271612027
4	1661799	132.6	1.3336271612027
4	1663574	132.7	1.3336271612027
4	1665386	132.8	1.3336271612027
4	1667118	132.9	1.3336271612027
4	1668835	133	1.3336271612027
4	1670596	133.1	1.3336271612027
4	1672245	133.2	1.3336271612027
4	1674026	133.3	1.3336271612027
4	1675781	133.4	1.3336271612027
4	1677472	133.5	1.3336271612027
4	1679227	133.6	1.3336271612027
4	1681060	133.7	1.3336271612027
4	1682823	133.8	1.3336271612027
4	1684564	133.9	1.3336271612027
4	1686396	134	1.3336271612027
4	1688114	134.1	1.3336271612027
4	1689859	134.2	1.3336271612027
4	1691577	134.3	1.3336271612027
4	1693289	134.4	1.3336271612027
4	1695075	134.5	1.3336271612027
4	1696724	134.6	1.3336271612027
4	1698541	134.7	1.3336271612027
4	1700277	134.8	1.3336271612027
4	1702118	134.9	1.3336271612027
4	1703841	135	1.3336271612027
4	1705548	135.1	1.3336271612027
4	1707257	135.2	1.3336271612027
4	1709031	135.3	1.3336271612027
4	1710772	135.4	1.3336271612027
4	1712424	135.5	1.3336271612027
4	1714208	135.6	1.3336271612027
4	1715890	135.7	1.3336271612027
4	1717604	135.8	1.3336271612027
4	1719355	135.9	1.3336271612027
4	1721046	136	1.3336271612027
4	1722788	136.1	1.3336271612027
4	1724500	136.2	1.3336271612027
4	1726348	136.3	1.3336271612027
4	1728075	136.4	1.3336271612027
4	1729830	136.5	1.3336271612027
4	1731586	136.6	1.3336271612027
4	1733272	136.7	1.3336271612027
4	1734882	136.8	1.3336271612027
4	1736521	136.9	1.3336271612027
4	1738270	137	1.3336271612027
4	1740014	137.1	1.3336271612027
4	1741772	137.2	1.3336271612027
4	1743554	137.3	1.3336271612027
4	1745263	137.4	1.3336271612027
4	1746920	137.5	1.3336271612027
4	1748695	137.6	1.3336271612027
4	1750592	137.7	1.3336271612027
4	1752382	137.8	1.3336271612027
4	1754083	137.9	1.3336271612027
4	1755860	138	1.3336271612027
4	1757615	138.1	1.3336271612027
4	1759241	138.2	1.3336271612027
4	1760970	138.3	1.3336271612027
4	1762724	138.4	1.3336271612027
4	1764355	138.5	1.3336271612027
4	1766087	138.6	1.3336271612027
4	1767933	138.7	1.3336271612027
4	1769623	138.8	1.3336271612027
4	1771372	138.9	1.3336271612027
4	1773060	139	1.3336271612027
4	1774731	139.1	1.3336271612027
4	1776426	139.2	1.3336271612027
4	1778126	139.3	1.3336271612027
4	1779909	139.4	1.3336271612027
4	1781627	139.5	1.3336271612027
4	1783365	139.6	1.3336271612027
4	1785038	139.7	1.3336271612027
4	1786800	139.8	1.3336271612027
4	1788443	139.9	1.3336271612027
4	1790163	140	1.3336271612027
4	1791869	140.1	1.3336271612027
4	1793609	140.2	1.3336271612027
4	1795492	140.3	1.3336271612027
4	1797349	140.4	1.3336271612027
4	1799119	140.5	1.3336271612027
4	1800835	140.6	1.3336271612027
4	1802647	140.7	1.3336271612027
4	1804558	140.8	1.3336271612027
4	1806351	140.9	1.3336271612027
4	1808178	141	1.3336271612027
4	1809802	141.1	1.3336271612027
4	1811494	141.2	1.3336271612027
4	1813199	141.3	1.3336271612027
4	1814919	141.4	1.3336271612027
4	1816595	141.5	1.3336271612027
4	1818257	141.6	1.3336271612027
4	1820080	141.7	1.3336271612027
4	1821790	141.8	1.3336271612027
4	1823629	141.9	1.3336271612027
4	1825261	142	1.3336271612027
4	1826922	142.1	1.3336271612027
4	1828655	142.2	1.3336271612027
4	1830399	142.3	1.3336271612027
4	1832061	142.4	1.3336271612027
4	1833889	142.5	1.3336271612027
4	1835588	142.6	1.3336271612027
4	1837306	142.7	1.3336271612027
4	1839260	142.8	1.3336271612027
4	1841131	142.9	1.3336271612027
4	1842941	143	1.3336271612027
4	1844724	143.1	1.3336271612027
4	1846539	143.2	1.3336271612027
4	1848412	143.3	1.3336271612027
4	1850192	143.4	1.3336271612027
4	1852073	143.5	1.3336271612027
4	1853970	143.6	1.3336271612027
4	1855883	143.7	1.3336271612027
4	1857700	143.8	1.3336271612027
4	1859394	143.9	1.3336271612027
4	1861217	144	1.3336271612027
4	1863014	144.1	1.3336271612027
4	1864743	144.2	1.3336271612027
4	1866487	144.3	1.3336271612027
4	1868273	144.4	1.3336271612027
4	1870072	144.5	1.3336271612027
4	1871897	144.6	1.3336271612027
4	1873794	144.7	1.3336271612027
4	1875690	144.8	1.3336271612027
4	1877451	144.9	1.3336271612027
4	1879294	145	1.3336271612027
4	1881089	145.1	1.3336271612027
4	1882960	145.2	1.3336271612027
4	1884782	145.3	1.3336271612027
4	1886652	145.4	1.3336271612027
4	1888365	145.5	1.3336271612027
4	1890173	145.6	1.3336271612027
4	1892010	145.7	1.3336271612027
4	1893845	145.8	1.3336271612027
4	1895616	145.9	1.3336271612027
4	1897593	146	1.3336271612027
4	1899454	146.1	1.3336271612027
4	1901166	146.2	1.3336271612027
4	1903077	146.3	1.3336271612027
4	1904773	146.4	1.3336271612027
4	1906476	146.5	1.3336271612027
4	1908249	146.6	1.3336271612027
4	1910038	146.7	1.3336271612027
4	1911789	146.8	1.3336271612027
4	1913537	146.9	1.3336271612027
4	1915323	147	1.3336271612027
4	1917253	147.1	1.3336271612027
4	1919010	147.2	1.3336271612027
4	1920734	147.3	1.3336271612027
4	1922583	147.4	1.3336271612027
4	1924297	147.5	1.3336271612027
4	1926000	147.6	1.3336271612027
4	1927797	147.7	1.3336271612027
4	1929632	147.8	1.3336271612027
4	1931370	147.9	1.3336271612027
4	1933218	148	1.3336271612027
4	1934976	148.1	1.3336271612027
4	1936748	148.2	1.3336271612027
4	1938423	148.3	1.3336271612027
4	1940161	148.4	1.3336271612027
4	1942076	148.5	1.3336271612027
4	1943948	148.6	1.3336271612027
4	1945665	148.7	1.3336271612027
4	1947460	148.8	1.3336271612027
4	1949256	148.9	1.3336271612027
4	1951000	149	1.3336271612027
4	1952802	149.1	1.3336271612027
4	1954548	149.2	1.3336271612027
4	1956169	149.3	1.3336271612027
4	1957933	149.4	1.3336271612027
4	1959704	149.5	1.3336271612027
4	1961462	149.6	1.3336271612027
4	1963147	149.7	1.3336271612027
4	1964864	149.8	1.3336271612027
4	1966719	149.9	1.3336271612027
4	1968623	150	1.3336271612027
4	1970370	150.1	1.3336271612027
4	1972072	150.2	1.3336271612027
4	1973756	150.3	1.3336271612027
4	1975625	150.4	1.3336271612027
4	1977481	150.5	1.3336271612027
4	1979364	150.6	1.3336271612027
4	1981069	150.7	1.3336271612027
4	1982674	150.8	1.3336271612027
4	1984255	150.9	1.3336271612027
4	1985916	151	1.3336271612027
4	1987747	151.1	1.3336271612027
4	1989515	151.2	1.3336271612027
4	1991234	151.3	1.3336271612027
4	1993127	151.4	1.3336271612027
4	1994956	151.5	1.3336271612027
4	1996808	151.6	1.3336271612027
4	1998618	151.7	1.3336271612027
4	2000452	151.8	1.3336271612027
4	2002166	151.9	1.3336271612027
4	2003998	152	1.3336271612027
4	2005945	152.1	1.3336271612027
4	2007815	152.2	1.3336271612027
4	2009512	152.3	1.3336271612027
4	2011308	152.4	1.3336271612027
4	2013018	152.5	1.3336271612027
4	2014948	152.6	1.3336271612027
4	2016806	152.7	1.3336271612027
4	2018629	152.8	1.3336271612027
4	2020336	152.9	1.3336271612027
4	2022231	153	1.3336271612027
4	2023968	153.1	1.3336271612027
4	2025781	153.2	1.3336271612027
4	2027675	153.3	1.3336271612027
4	2029333	153.4	1.3336271612027
4	2031234	153.5	1.3336271612027
4	2032898	153.6	1.3336271612027
4	2034764	153.7	1.3336271612027
4	2036671	153.8	1.3336271612027
4	2038571	153.9	1.3336271612027
4	2040474	154	1.3336271612027
4	2042424	154.1	1.3336271612027
4	2044185	154.2	1.3336271612027
4	2046058	154.3	1.3336271612027
4	2047926	154.4	1.3336271612027
4	2049640	154.5	1.3336271612027
4	2051517	154.6	1.3336271612027
4	2053275	154.7	1.3336271612027
4	2055105	154.8	1.3336271612027
4	2056913	154.9	1.3336271612027
4	2058681	155	1.3336271612027
4	2060357	155.1	1.3336271612027
4	2062219	155.2	1.3336271612027
4	2064047	155.3	1.3336271612027
4	2065880	155.4	1.3336271612027
4	2067667	155.5	1.3336271612027
4	2069559	155.6	1.3336271612027
4	2071341	155.7	1.3336271612027
4	2073206	155.8	1.3336271612027
4	2074976	155.9	1.3336271612027
4	2076698	156	1.3336271612027
4	2078497	156.1	1.3336271612027
4	2080391	156.2	1.3336271612027
4	2082246	156.3	1.3336271612027
4	2084155	156.4	1.3336271612027
4	2085944	156.5	1.3336271612027
4	2087828	156.6	1.3336271612027
4	2089687	156.7	1.3336271612027
4	2091556	156.8	1.3336271612027
4	2093423	156.9	1.3336271612027
4	2095120	157	1.3336271612027
3	56	0.3	10
3	104	0.4	10
3	152	0.5	5.6523123819625
3	200	0.6	0
3	248	0.7	0
3	296	0.8	0
3	344	0.9	0
3	392	1	0
3	440	1.1	0
3	508	1.2	0
3	590	1.3	0
3	672	1.4	0
3	754	1.5	0
3	836	1.6	0
3	918	1.7	0
3	1000	1.8	0
3	1082	1.9	0
3	1164	2	0
3	1246	2.1	0
3	1374	2.2	0
3	1618	2.3	0
3	1905	2.4	0
3	2184	2.5	0
3	2481	2.6	0
3	2760	2.7	0
3	3058	2.8	0
3	3338	2.9	0
3	3625	3	0
3	3896	3.1	0
3	4197	3.2	0
3	4488	3.3	0
3	4780	3.4	0
3	5053	3.5	0
3	5341	3.6	0
3	5622	3.7	0
3	5923	3.8	0
3	6200	3.9	0
3	6502	4	0
3	6794	4.1	0
3	7095	4.2	0
3	7368	4.3	0
3	7669	4.4	0
3	7937	4.5	0
3	8233	4.6	0
3	8501	4.7	0
3	8783	4.8	0
3	9072	4.9	0
3	9371	5	0
3	9648	5.1	0
3	9934	5.2	0
3	10213	5.3	0
3	10502	5.4	0
3	10765	5.5	0
3	11054	5.6	0
3	11328	5.7	0
3	11621	5.8	0
3	11889	5.9	0
3	12184	6	0
3	12452	6.1	0
3	12753	6.2	0
3	13027	6.3	0
3	13313	6.4	0
3	13584	6.5	0
3	13872	6.6	0
3	14152	6.7	0
3	14452	6.8	0
3	14725	6.9	0
3	15026	7	0
3	15305	7.1	0
3	15592	7.2	0
3	15853	7.3	0
3	16150	7.4	0
3	16429	7.5	0
3	16723	7.6	0
3	17002	7.7	0
3	17294	7.8	0
3	17571	7.9	0
3	17851	8	0
3	18128	8.1	0
3	18521	8.2	0
3	19035	8.3	0
3	19538	8.4	0
3	20085	8.5	0
3	20605	8.6	0
3	21160	8.7	0
3	21717	8.8	0
3	22253	8.9	0
3	22797	9	0
3	23327	9.1	0
3	23947	9.2	0
3	24633	9.3	0
3	25288	9.4	0
3	26027	9.5	0
3	26754	9.6	0
3	27438	9.7	0
3	28093	9.8	0
3	28852	9.9	0
3	29616	10	0
3	30358	10.1	0
3	31078	10.2	0
3	31876	10.3	0
3	32614	10.4	0
3	33421	10.5	0
3	34175	10.6	0
3	34904	10.7	0
3	35674	10.8	0
3	36414	10.9	0
3	37137	11	0
3	37929	11.1	0
3	38704	11.2	0
3	39481	11.3	0
3	40233	11.4	0
3	40926	11.5	0
3	41637	11.6	0
3	42342	11.7	0
3	43051	11.8	0
3	43756	11.9	0
3	44453	12	0
3	45155	12.1	0
3	45946	12.2	0
3	46735	12.3	0
3	47624	12.4	0
3	48420	12.5	0
3	49097	12.6	0
3	49810	12.7	0
3	50512	12.8	0
3	51164	12.9	0
3	51836	13	0
3	52546	13.1	0
3	53351	13.2	0
3	54104	13.3	0
3	54836	13.4	0
3	55492	13.5	0
3	56271	13.6	0
3	57112	13.7	0
3	57860	13.8	0
3	58599	13.9	0
3	59293	14	0
3	60035	14.1	0
3	60854	14.2	0
3	61616	14.3	0
3	62408	14.4	0
3	63171	14.5	0
3	63975	14.6	0
3	64752	14.7	0
3	65561	14.8	0
3	66313	14.9	0
3	67043	15	0
3	67834	15.1	0
3	68606	15.2	0
3	69386	15.3	0
3	70098	15.4	0
3	70860	15.5	0
3	71639	15.6	0
3	72319	15.7	0
3	73069	15.8	0
3	73802	15.9	0
3	74597	16	0
3	75328	16.1	0
3	76036	16.2	0
3	76824	16.3	0
3	77597	16.4	0
3	78425	16.5	0
3	79185	16.6	0
3	79936	16.7	0
3	80672	16.8	0
3	81420	16.9	0
3	82131	17	0
3	82852	17.1	0
3	83556	17.2	0
3	84244	17.3	0
3	84988	17.4	0
3	85772	17.5	0
3	86509	17.6	0
3	87215	17.7	0
3	87908	17.8	0
3	88615	17.9	0
3	89286	18	0
3	90041	18.1	0
3	90750	18.2	0
3	91460	18.3	0
3	92165	18.4	0
3	92815	18.5	0
3	93522	18.6	0
3	94322	18.7	0
3	95097	18.8	0
3	95909	18.9	0
3	96654	19	0
3	97377	19.1	0
3	98184	19.2	0
3	98893	19.3	0
3	99581	19.4	0
3	100304	19.5	0
3	101106	19.6	0
3	101829	19.7	0
3	102530	19.8	0
3	103242	19.9	0
3	103957	20	0
3	104725	20.1	0
3	105395	20.2	0
3	106152	20.3	0
3	106846	20.4	0
3	107524	20.5	0
3	108211	20.6	0
3	108897	20.7	0
3	109659	20.8	0
3	110384	20.9	0
3	111105	21	0
3	111881	21.1	0
3	112563	21.2	0
3	113264	21.3	0
3	113979	21.4	0
3	114690	21.5	0
3	115494	21.6	0
3	116275	21.7	0
3	116969	21.8	0
3	117717	21.9	0
3	118526	22	0
3	119286	22.1	0
3	120070	22.2	0
3	120827	22.3	0
3	121516	22.4	0
3	122228	22.5	0
3	122948	22.6	0
3	123662	22.7	0
3	124429	22.8	0
3	125148	22.9	0
3	125872	23	0
3	126639	23.1	0
3	127320	23.2	0
3	128036	23.3	0
3	128750	23.4	0
3	129551	23.5	0
3	130306	23.6	0
3	131097	23.7	0
3	131787	23.8	0
3	132639	23.9	0
3	133388	24	0
3	134077	24.1	0
3	134759	24.2	0
3	135518	24.3	0
3	136209	24.4	0
3	136916	24.5	0
3	137630	24.6	0
3	138338	24.7	0
3	139000	24.8	0
3	139771	24.9	0
3	140573	25	0
3	141358	25.1	0
3	142145	25.2	0
3	142899	25.3	0
3	143670	25.4	0
3	144343	25.5	0
3	145081	25.6	0
3	145781	25.7	0
3	146508	25.8	0
3	147238	25.9	0
3	148029	26	0
3	148760	26.1	0
3	149422	26.2	0
3	150212	26.3	0
3	150983	26.4	0
3	151780	26.5	0
3	152471	26.6	0
3	153284	26.7	0
3	154037	26.8	0
3	154830	26.9	0
3	155613	27	0
3	156410	27.1	0
3	157183	27.2	0
3	158003	27.3	0
3	158684	27.4	0
3	159373	27.5	0
3	160080	27.6	0
3	160790	27.7	0
3	161484	27.8	0
3	162180	27.9	0
3	162918	28	0
3	163711	28.1	0
3	164389	28.2	0
3	165106	28.3	0
3	165827	28.4	0
3	166640	28.5	0
3	167345	28.6	0
3	168066	28.7	0
3	168878	28.8	0
3	169639	28.9	0
3	170345	29	0
3	171062	29.1	0
3	171858	29.2	0
3	172621	29.3	0
3	173323	29.4	0
3	174037	29.5	0
3	174866	29.6	0
3	175629	29.7	0
3	176458	29.8	0
3	177223	29.9	0
3	178006	30	0
3	178643	30.1	0
3	179330	30.2	0
3	180140	30.3	0
3	180932	30.4	0
3	181654	30.5	0
3	182353	30.6	0
3	183006	30.7	0
3	183708	30.8	0
3	184409	30.9	0
3	185096	31	0
3	185811	31.1	0
3	186619	31.2	0
3	187356	31.3	0
3	188022	31.4	0
3	188716	31.5	0
3	189438	31.6	0
3	190226	31.7	0
3	191000	31.8	0
3	191862	31.9	0
3	192646	32	0
3	193524	32.1	0
3	194391	32.2	0
3	195203	32.3	0
3	196040	32.4	0
3	196989	32.5	0
3	197974	32.6	0
3	198950	32.7	0
3	199897	32.8	0
3	200796	32.9	0
3	201612	33	0
3	202474	33.1	0
3	203413	33.2	0
3	204441	33.3	0
3	205500	33.4	0
3	206436	33.5	0
3	207320	33.6	0
3	208165	33.7	0
3	209105	33.8	0
3	210101	33.9	0
3	211074	34	0
3	211982	34.1	0
3	212844	34.2	0
3	213714	34.3	0
3	214669	34.4	0
3	215681	34.5	0
3	216693	34.6	0
3	217705	34.7	0
3	218677	34.8	0
3	219647	34.9	0
3	220502	35	0
3	221360	35.1	0
3	222286	35.2	0
3	223247	35.3	0
3	224219	35.4	0
3	225168	35.5	0
3	226151	35.6	0
3	227008	35.7	0
3	227901	35.8	0
3	228799	35.9	0
3	229746	36	0
3	230708	36.1	0
3	231689	36.2	0
3	232580	36.3	0
3	233601	36.4	0
3	234516	36.5	0
3	235440	36.6	0
3	236373	36.7	0
3	237365	36.8	0
3	238302	36.9	0
3	239224	37	0
3	240124	37.1	0
3	241136	37.2	0
3	242065	37.3	0
3	242958	37.4	0
3	243873	37.5	0
3	244804	37.6	0
3	245696	37.7	0
3	246622	37.8	0
3	247576	37.9	0
3	248432	38	0
3	249406	38.1	0
3	250539	38.2	0
3	251678	38.3	0
3	252921	38.4	0
3	254040	38.5	0
3	255151	38.6	0
3	256281	38.7	0
3	257316	38.8	0
3	258337	38.9	0
3	259423	39	0
3	260460	39.1	0
3	261516	39.2	0
3	262639	39.3	0
3	263698	39.4	0
3	264779	39.5	0
3	265862	39.6	0
3	266955	39.7	0
3	268200	39.8	0
3	269313	39.9	0
3	270447	40	0
3	271513	40.1	0
3	272589	40.2	0
3	273644	40.3	0
3	274765	40.4	0
3	275887	40.5	0
3	276997	40.6	0
3	278136	40.7	0
3	279209	40.8	0
3	280272	40.9	0
3	281344	41	0
3	282457	41.1	0
3	283448	41.2	0
3	284450	41.3	0
3	285591	41.4	0
3	286842	41.5	0
3	288034	41.6	0
3	289109	41.7	0
3	290164	41.8	0
3	291245	41.9	0
3	292277	42	0
3	293290	42.1	0
3	294381	42.2	0
3	295378	42.3	0
3	296450	42.4	0
3	297547	42.5	0
3	298629	42.6	0
3	299699	42.7	0
3	300852	42.8	0
3	302034	42.9	0
3	303085	43	0
3	304186	43.1	0
3	305294	43.2	0
3	306386	43.3	0
3	307611	43.4	0
3	308687	43.5	0
3	309789	43.6	0
3	310913	43.7	0
3	312031	43.8	0
3	313164	43.9	0
3	314149	44	0
3	315247	44.1	0
3	316370	44.2	0
3	317451	44.3	0
3	318574	44.4	0
3	319612	44.5	0
3	320679	44.6	0
3	321792	44.7	0
3	322951	44.8	0
3	324127	44.9	0
3	325200	45	0
3	326342	45.1	0
3	327548	45.2	0
3	328674	45.3	0
3	329700	45.4	0
3	330740	45.5	0
3	331794	45.6	0
3	332810	45.7	0
3	333857	45.8	0
3	334853	45.9	0
3	335954	46	0
3	337016	46.1	0
3	338141	46.2	0
3	339151	46.3	0
3	340200	46.4	0
3	341286	46.5	0
3	342353	46.6	0
3	343374	46.7	0
3	344520	46.8	0
3	345673	46.9	0
3	346723	47	0
3	347890	47.1	0
3	348959	47.2	0
3	350027	47.3	0
3	351074	47.4	0
3	352120	47.5	0
3	353086	47.6	0
3	354119	47.7	0
3	355256	47.8	0
3	356230	47.9	0
3	357235	48	0
3	358264	48.1	0
3	359376	48.2	0
3	360549	48.3	0
3	361661	48.4	0
3	362760	48.5	0
3	363889	48.6	0
3	364994	48.7	0
3	366088	48.8	0
3	367309	48.9	0
3	368431	49	0
3	369610	49.1	0
3	370633	49.2	0
3	371758	49.3	0
3	372885	49.4	0
3	373940	49.5	0
3	374942	49.6	0
3	375945	49.7	0
3	377001	49.8	0
3	378131	49.9	0
3	379146	50	0
3	380154	50.1	0
3	381106	50.2	0
3	382178	50.3	0
3	383280	50.4	0
3	384309	50.5	0
3	385349	50.6	0
3	386386	50.7	0
3	387522	50.8	0
3	388590	50.9	0
3	389684	51	0
3	390789	51.1	0
3	391902	51.2	0
3	393005	51.3	0
3	394003	51.4	0
3	395076	51.5	0
3	396238	51.6	0
3	397262	51.7	0
3	398390	51.8	0
3	399469	51.9	0
3	400497	52	0
3	401543	52.1	0
3	402570	52.2	0
3	403718	52.3	0
3	404977	52.4	0
3	406199	52.5	0
3	407299	52.6	0
3	408341	52.7	0
3	409510	52.8	0
3	410628	52.9	0
3	411625	53	0
3	412670	53.1	0
3	413844	53.2	0
3	414938	53.3	0
3	415974	53.4	0
3	417127	53.5	0
3	418187	53.6	0
3	419259	53.7	0
3	420224	53.8	0
3	421319	53.9	0
3	422428	54	0
3	423548	54.1	0
3	424772	54.2	0
3	425832	54.3	0
3	426870	54.4	0
3	427918	54.5	0
3	429059	54.6	0
3	430154	54.7	0
3	431194	54.8	0
3	432246	54.9	0
3	433366	55	0
3	434454	55.1	0
3	435521	55.2	0
3	436657	55.3	0
3	437784	55.4	0
3	438909	55.5	0
3	440005	55.6	0
3	441024	55.7	0
3	442068	55.8	0
3	443132	55.9	0
3	444175	56	0
3	445240	56.1	0
3	446214	56.2	0
3	447243	56.3	0
3	448398	56.4	0
3	449635	56.5	0
3	450744	56.6	0
3	451760	56.7	0
3	452778	56.8	0
3	453938	56.9	0
3	455086	57	0
3	456243	57.1	0
3	457377	57.2	0
3	458508	57.3	0
3	459571	57.4	0
3	460608	57.5	0
3	461699	57.6	0
3	462826	57.7	0
3	463962	57.8	0
3	465040	57.9	0
3	466099	58	0
3	467225	58.1	0
3	468267	58.2	0
3	469333	58.3	0
3	470456	58.4	0
3	471498	58.5	0
3	472604	58.6	0
3	473628	58.7	0
3	474663	58.8	0
3	475846	58.9	0
3	476895	59	0
3	477903	59.1	0
3	479049	59.2	0
3	480118	59.3	0
3	481240	59.4	0
3	482305	59.5	0
3	483384	59.6	0
3	484375	59.7	0
3	485498	59.8	0
3	486655	59.9	0
3	487780	60	0
3	489054	60.1	0
3	490230	60.2	0
3	491411	60.3	0
3	492633	60.4	0
3	493737	60.5	0
3	494803	60.6	0
3	495873	60.7	0
3	497031	60.8	0
3	498257	60.9	0
3	499411	61	0
3	500438	61.1	0
3	501496	61.2	0
3	502659	61.3	0
3	503828	61.4	0
3	505015	61.5	0
3	506128	61.6	0
3	507195	61.7	0
3	508351	61.8	0
3	509518	61.9	0
3	510569	62	0
3	511657	62.1	0
3	512949	62.2	0
3	514359	62.3	0
3	515692	62.4	0
3	517028	62.5	0
3	518417	62.6	0
3	519720	62.7	0
3	521015	62.8	0
3	522299	62.9	0
3	523655	63	0
3	524958	63.1	0
3	526240	63.2	0
3	527446	63.3	0
3	528625	63.4	0
3	529898	63.5	0
3	531132	63.6	0
3	532471	63.7	0
3	533816	63.8	0
3	535232	63.9	0
3	536570	64	0
3	537923	64.1	0
3	539363	64.2	0
3	540666	64.3	0
3	542041	64.4	0
3	543241	64.5	0
3	544561	64.6	0
3	545855	64.7	0
3	547254	64.8	0
3	548684	64.9	0
3	549949	65	0
3	551323	65.1	0
3	552552	65.2	0
3	553731	65.3	0
3	555068	65.4	0
3	556446	65.5	0
3	557774	65.6	0
3	559162	65.7	0
3	560560	65.8	0
3	561951	65.9	0
3	563246	66	0
3	564520	66.1	0
3	565723	66.2	0
3	567038	66.3	0
3	568326	66.4	0
3	569597	66.5	0
3	570897	66.6	0
3	572253	66.7	0
3	573631	66.8	0
3	574889	66.9	0
3	576086	67	0
3	577323	67.1	0
3	578639	67.2	0
3	579997	67.3	0
3	581423	67.4	0
3	582844	67.5	0
3	584160	67.6	0
3	585584	67.7	0
3	586822	67.8	0
3	588111	67.9	0
3	589632	68	0
3	591082	68.1	0
3	592422	68.2	0
3	593921	68.3	0
3	595486	68.4	0
3	596966	68.5	0
3	598537	68.6	0
3	600161	68.7	0
3	601596	68.8	0
3	603073	68.9	0
3	604664	69	0
3	606168	69.1	0
3	607618	69.2	0
3	609041	69.3	0
3	610658	69.4	0
3	612132	69.5	0
3	613602	69.6	0
3	615113	69.7	0
3	616710	69.8	0
3	618357	69.9	0
3	619848	70	0
3	621290	70.1	0
3	622691	70.2	0
3	624184	70.3	0
3	625795	70.4	0
3	627431	70.5	0
3	628918	70.6	0
3	630478	70.7	0
3	632179	70.8	0
3	633809	70.9	0
3	635426	71	0
3	636933	71.1	0
3	638502	71.2	0
3	639913	71.3	0
3	641481	71.4	0
3	643122	71.5	0
3	644715	71.6	0
3	646293	71.7	0
3	647989	71.8	0
3	649495	71.9	0
3	650964	72	0
3	652424	72.1	0
3	653859	72.2	0
3	655466	72.3	0
3	656960	72.4	0
3	658573	72.5	0
3	660070	72.6	0
3	661571	72.7	0
3	663233	72.8	0
3	664763	72.9	0
3	666354	73	0
3	667879	73.1	0
3	669474	73.2	0
3	670935	73.3	0
3	672408	73.4	0
3	674047	73.5	0
3	675644	73.6	0
3	677249	73.7	0
3	678886	73.8	0
3	680431	73.9	0
3	681909	74	0
3	683457	74.1	0
3	684969	74.2	0
3	686599	74.3	0
3	688081	74.4	0
3	689610	74.5	0
3	691207	74.6	0
3	692689	74.7	0
3	694209	74.8	0
3	695693	74.9	0
3	697364	75	0
3	698890	75.1	0
3	700285	75.2	0
3	701799	75.3	0
3	703207	75.4	0
3	704725	75.5	0
3	706208	75.6	0
3	707816	75.7	0
3	709347	75.8	0
3	710809	75.9	0
3	712431	76	0
3	714033	76.1	0
3	715536	76.2	0
3	717143	76.3	0
3	718758	76.4	0
3	720203	76.5	0
3	721737	76.6	0
3	723234	76.7	0
3	724757	76.8	0
3	726333	76.9	0
3	728031	77	0
3	729555	77.1	0
3	731099	77.2	0
3	732637	77.3	0
3	734290	77.4	0
3	735912	77.5	0
3	737451	77.6	0
3	739031	77.7	0
3	740671	77.8	0
3	742394	77.9	0
3	744015	78	0
3	745735	78.1	0
3	747383	78.2	0
3	749040	78.3	0
3	750531	78.4	0
3	752050	78.5	0
3	753526	78.6	0
3	755147	78.7	0
3	756603	78.8	0
3	758145	78.9	0
3	759667	79	0
3	761232	79.1	0
3	762837	79.2	0
3	764326	79.3	0
3	765888	79.4	0
3	767534	79.5	0
3	769123	79.6	0
3	770823	79.7	0
3	772380	79.8	0
3	773975	79.9	0
3	775458	80	0
3	777154	80.1	0
3	778750	80.2	0
3	780166	80.3	0
3	781715	80.4	0
3	783195	80.5	0
3	784846	80.6	0
3	786472	80.7	0
3	788030	80.8	0
3	789714	80.9	0
3	791224	81	0
3	792772	81.1	0
3	794278	81.2	0
3	795888	81.3	0
3	797449	81.4	0
3	799098	81.5	0
3	800626	81.6	0
3	802123	81.7	0
3	803653	81.8	0
3	805188	81.9	0
3	806824	82	0
3	808442	82.1	0
3	810149	82.2	0
3	811634	82.3	0
3	813177	82.4	0
3	814787	82.5	0
3	816381	82.6	0
3	817865	82.7	0
3	819304	82.8	0
3	820737	82.9	0
3	822339	83	0
3	823844	83.1	0
3	825341	83.2	0
3	827061	83.3	0
3	828674	83.4	0
3	830302	83.5	0
3	831895	83.6	0
3	833361	83.7	0
3	834892	83.8	0
3	836541	83.9	0
3	838029	84	0
3	839563	84.1	0
3	841193	84.2	0
3	842789	84.3	0
3	844378	84.4	0
3	845946	84.5	0
3	847588	84.6	0
3	849225	84.7	0
3	850770	84.8	0
3	852261	84.9	0
3	853862	85	0
3	855567	85.1	0
3	857135	85.2	0
3	858792	85.3	0
3	860353	85.4	0
3	861844	85.5	0
3	863411	85.6	0
3	865134	85.7	0
3	866690	85.8	0
3	868219	85.9	0
3	869838	86	0
3	871273	86.1	0
3	872900	86.2	0
3	874434	86.3	0
3	875922	86.4	0
3	877534	86.5	0
3	879128	86.6	0
3	880761	86.7	0
3	882338	86.8	0
3	884038	86.9	0
3	885641	87	0
3	887186	87.1	0
3	888895	87.2	0
3	890401	87.3	0
3	892091	87.4	0
3	893697	87.5	0
3	895382	87.6	0
3	897021	87.7	0
3	898536	87.8	0
3	900152	87.9	0
3	901757	88	0
3	903379	88.1	0
3	904903	88.2	0
3	906534	88.3	0
3	908021	88.4	0
3	909523	88.5	0
3	911224	88.6	0
3	912931	88.7	0
3	914537	88.8	0
3	915983	88.9	0
3	917656	89	0
3	919207	89.1	0
3	920842	89.2	0
3	922514	89.3	0
3	924123	89.4	0
3	925597	89.5	0
3	927124	89.6	0
3	928610	89.7	0
3	930205	89.8	0
3	931672	89.9	0
3	933287	90	0
3	934874	90.1	0
3	936409	90.2	0
3	937859	90.3	0
3	939348	90.4	0
3	940848	90.5	0
3	942532	90.6	0
3	943931	90.7	0
3	945383	90.8	0
3	946851	90.9	0
3	948424	91	0
3	949968	91.1	0
3	951588	91.2	0
3	953271	91.3	0
3	954848	91.4	0
3	956409	91.5	0
3	958154	91.6	0
3	959830	91.7	0
3	961524	91.8	0
3	963149	91.9	0
3	964693	92	0
3	966280	92.1	0
3	967785	92.2	0
3	969201	92.3	0
3	970747	92.4	0
3	972205	92.5	0
3	973738	92.6	0
3	975272	92.7	0
3	976882	92.8	0
3	978477	92.9	0
3	979978	93	0
3	981598	93.1	0
3	983134	93.2	0
3	984666	93.3	0
3	986185	93.4	0
3	987815	93.5	0
3	989346	93.6	0
3	990813	93.7	0
3	992280	93.8	0
3	993793	93.9	0
3	995437	94	0
3	997029	94.1	0
3	998416	94.2	0
3	1000047	94.3	0
3	1001759	94.4	0
3	1003336	94.5	0
3	1005011	94.6	0
3	1006694	94.7	0
3	1008188	94.8	0
3	1009735	94.9	0
3	1011344	95	0
3	1012855	95.1	0
3	1014362	95.2	0
3	1016068	95.3	0
3	1017670	95.4	0
3	1019246	95.5	0
3	1020898	95.6	0
3	1022500	95.7	0
3	1024013	95.8	0
3	1025495	95.9	0
3	1027122	96	0
3	1028774	96.1	0
3	1030427	96.2	0
3	1032009	96.3	0
3	1033564	96.4	0
3	1035143	96.5	0
3	1036697	96.6	0
3	1038326	96.7	0
3	1040000	96.8	0
3	1041502	96.9	0
3	1042944	97	0
3	1044440	97.1	0
3	1046128	97.2	0
3	1047627	97.3	0
3	1049374	97.4	0
3	1050994	97.5	0
3	1052681	97.6	0
3	1054296	97.7	0
3	1055752	97.8	0
3	1057390	97.9	0
3	1059036	98	0
3	1060614	98.1	0
3	1062281	98.2	0
3	1064152	98.3	0
3	1065853	98.4	0
3	1067619	98.5	0
3	1069309	98.6	0
3	1071018	98.7	0
3	1072837	98.8	0
3	1074641	98.9	0
3	1076515	99	0
3	1078288	99.1	0
3	1080042	99.2	0
3	1081802	99.3	0
3	1083680	99.4	0
3	1085364	99.5	0
3	1087203	99.6	0
3	1089109	99.7	0
3	1090865	99.8	0
3	1092474	99.9	0
3	1094174	100	0
3	1095943	100.1	0
3	1097722	100.2	0
3	1099581	100.3	0
3	1101367	100.4	0
3	1103231	100.5	0
3	1104990	100.6	0
3	1106714	100.7	0
3	1108478	100.8	0
3	1110344	100.9	0
3	1112142	101	0
3	1113995	101.1	0
3	1115889	101.2	0
3	1117673	101.3	0
3	1119446	101.4	0
3	1121276	101.5	0
3	1122986	101.6	0
3	1124666	101.7	0
3	1126502	101.8	0
3	1128237	101.9	0
3	1129877	102	0
3	1131743	102.1	0
3	1133587	102.2	0
3	1135348	102.3	0
3	1137201	102.4	0
3	1138876	102.5	0
3	1140575	102.6	0
3	1142236	102.7	0
3	1143858	102.8	0
3	1145539	102.9	0
3	1147296	103	0
3	1149128	103.1	0
3	1150905	103.2	0
3	1152591	103.3	0
3	1154327	103.4	0
3	1156247	103.5	0
3	1157882	103.6	0
3	1159688	103.7	0
3	1161600	103.8	0
3	1163426	103.9	0
3	1165086	104	0
3	1166765	104.1	0
3	1168482	104.2	0
3	1170146	104.3	0
3	1171843	104.4	0
3	1173638	104.5	0
3	1175454	104.6	0
3	1177343	104.7	0
3	1179007	104.8	0
3	1180586	104.9	0
3	1182205	105	0
3	1184004	105.1	0
3	1185915	105.2	0
3	1187611	105.3	0
3	1189300	105.4	0
3	1191010	105.5	0
3	1192779	105.6	0
3	1194469	105.7	0
3	1196248	105.8	0
3	1198018	105.9	0
3	1199827	106	0
3	1201601	106.1	0
3	1203314	106.2	0
3	1204942	106.3	0
3	1206765	106.4	0
3	1208678	106.5	0
3	1210521	106.6	0
3	1212411	106.7	0
3	1214187	106.8	0
3	1215870	106.9	0
3	1217740	107	0
3	1219571	107.1	0
3	1221391	107.2	0
3	1223103	107.3	0
3	1224818	107.4	0
3	1226551	107.5	0
3	1228254	107.6	0
3	1230080	107.7	0
3	1231866	107.8	0
3	1233572	107.9	0
3	1235376	108	0
3	1237163	108.1	0
3	1239028	108.2	0
3	1240697	108.3	0
3	1242325	108.4	0
3	1244049	108.5	0
3	1245780	108.6	0
3	1247569	108.7	0
3	1249384	108.8	0
3	1251110	108.9	0
3	1252826	109	0
3	1254597	109.1	0
3	1256220	109.2	0
3	1257964	109.3	0
3	1259730	109.4	0
3	1261356	109.5	0
3	1262955	109.6	0
3	1264674	109.7	0
3	1266367	109.8	0
3	1268136	109.9	0
3	1269832	110	0
3	1271511	110.1	0
3	1273147	110.2	0
3	1274872	110.3	0
3	1276663	110.4	0
3	1278539	110.5	0
3	1280144	110.6	0
3	1281798	110.7	0
3	1283579	110.8	0
3	1285301	110.9	0
3	1287125	111	0
3	1288912	111.1	0
3	1290728	111.2	0
3	1292487	111.3	0
3	1294212	111.4	0
3	1295871	111.5	0
3	1297544	111.6	0
3	1299215	111.7	0
3	1301002	111.8	0
3	1302728	111.9	0
3	1304506	112	0
3	1306359	112.1	0
3	1308019	112.2	0
3	1309683	112.3	0
3	1311471	112.4	0
3	1313256	112.5	0
3	1315000	112.6	0
3	1316695	112.7	0
3	1318408	112.8	0
3	1320075	112.9	0
3	1321801	113	0
3	1323480	113.1	0
3	1325264	113.2	0
3	1326957	113.3	0
3	1328588	113.4	0
3	1330253	113.5	0
3	1332078	113.6	0
3	1333730	113.7	0
3	1335444	113.8	0
3	1337078	113.9	0
3	1338797	114	0
3	1340544	114.1	0
3	1342288	114.2	0
3	1343955	114.3	0
3	1345741	114.4	0
3	1347454	114.5	0
3	1349132	114.6	0
3	1350842	114.7	0
3	1352527	114.8	0
3	1354245	114.9	0
3	1356069	115	0
3	1357814	115.1	0
3	1359514	115.2	0
3	1361206	115.3	0
3	1362915	115.4	0
3	1364638	115.5	0
3	1366477	115.6	0
3	1368269	115.7	0
3	1369960	115.8	0
3	1371678	115.9	0
3	1373390	116	0
3	1375146	116.1	0
3	1376837	116.2	0
3	1378633	116.3	0
3	1380328	116.4	0
3	1382000	116.5	0
3	1383799	116.6	0
3	1385617	116.7	0
3	1387436	116.8	0
3	1389195	116.9	0
3	1390966	117	0
3	1392664	117.1	0
3	1394354	117.2	0
3	1395991	117.3	0
3	1397718	117.4	0
3	1399447	117.5	0
3	1401170	117.6	0
3	1402912	117.7	0
3	1404675	117.8	0
3	1406469	117.9	0
3	1408148	118	0
3	1409796	118.1	0
3	1411416	118.2	0
3	1413164	118.3	0
3	1414931	118.4	0
3	1416692	118.5	0
3	1418433	118.6	0
3	1420058	118.7	0
3	1421787	118.8	0
3	1423544	118.9	0
3	1425224	119	0
3	1426848	119.1	0
3	1428455	119.2	0
3	1430081	119.3	0
3	1431712	119.4	0
3	1433566	119.5	0
3	1435330	119.6	0
3	1437119	119.7	0
3	1438862	119.8	0
3	1440530	119.9	0
3	1442318	120	0
3	1443943	120.1	0
3	1445754	120.2	0
3	1447447	120.3	0
3	1449147	120.4	0
3	1450934	120.5	0
3	1452666	120.6	0
3	1454360	120.7	0
3	1456122	120.8	0
3	1457866	120.9	0
3	1459641	121	0
3	1461297	121.1	0
3	1462992	121.2	0
3	1464732	121.3	0
3	1466427	121.4	0
3	1468194	121.5	0
3	1469903	121.6	0
3	1471694	121.7	0
3	1473514	121.8	0
3	1475385	121.9	0
3	1477106	122	0
3	1478781	122.1	0
3	1480655	122.2	0
3	1482338	122.3	0
3	1484206	122.4	0
3	1485946	122.5	0
3	1487708	122.6	0
3	1489325	122.7	0
3	1490978	122.8	0
3	1492779	122.9	0
3	1494533	123	0
3	1496189	123.1	0
3	1497904	123.2	0
3	1499647	123.3	0
3	1501299	123.4	0
3	1503116	123.5	0
3	1504910	123.6	0
3	1506622	123.7	0
3	1508341	123.8	0
3	1510158	123.9	0
3	1512013	124	0
3	1513764	124.1	0
3	1515443	124.2	0
3	1517267	124.3	0
3	1519004	124.4	0
3	1520759	124.5	0
3	1522542	124.6	0
3	1524222	124.7	0
3	1525936	124.8	0
3	1527655	124.9	0
3	1529421	125	0
3	1531127	125.1	0
3	1532814	125.2	0
3	1534476	125.3	0
3	1536079	125.4	0
3	1537852	125.5	0
3	1539510	125.6	0
3	1541159	125.7	0
3	1542959	125.8	0
3	1544732	125.9	0
3	1546544	126	0
3	1548329	126.1	0
3	1550131	126.2	0
3	1551853	126.3	0
3	1553555	126.4	0
3	1555250	126.5	0
3	1556938	126.6	0
3	1558697	126.7	0
3	1560360	126.8	0
3	1562082	126.9	0
3	1563742	127	0
3	1565462	127.1	0
3	1567137	127.2	0
3	1568843	127.3	0
3	1570601	127.4	0
3	1572252	127.5	0
3	1574078	127.6	0
3	1575897	127.7	0
3	1577753	127.8	0
3	1579551	127.9	0
3	1581372	128	0
3	1583239	128.1	0
3	1585019	128.2	0
3	1586721	128.3	0
3	1588569	128.4	0
3	1590420	128.5	0
3	1592155	128.6	0
3	1593837	128.7	0
3	1595466	128.8	0
3	1597112	128.9	0
3	1598834	129	0
3	1600623	129.1	0
3	1602419	129.2	0
3	1604035	129.3	0
3	1605729	129.4	0
3	1607413	129.5	0
3	1609112	129.6	0
3	1610887	129.7	0
3	1612570	129.8	0
3	1614269	129.9	0
3	1615983	130	0
3	1617734	130.1	0
3	1619478	130.2	0
3	1621210	130.3	0
3	1622964	130.4	0
3	1624705	130.5	0
3	1626535	130.6	0
3	1628388	130.7	0
3	1630080	130.8	0
3	1631727	130.9	0
3	1633506	131	0
3	1635293	131.1	0
3	1636976	131.2	0
3	1638752	131.3	0
3	1640505	131.4	0
3	1642260	131.5	0
3	1643870	131.6	0
3	1645740	131.7	0
3	1647530	131.8	0
3	1649393	131.9	0
3	1651261	132	0
3	1653019	132.1	0
3	1654780	132.2	0
3	1656523	132.3	0
3	1658298	132.4	0
3	1659995	132.5	0
3	1661799	132.6	0
3	1663574	132.7	0
3	1665386	132.8	0
3	1667118	132.9	0
3	1668835	133	0
3	1670596	133.1	0
3	1672245	133.2	0
3	1674026	133.3	0
3	1675781	133.4	0
3	1677472	133.5	0
3	1679227	133.6	0
3	1681060	133.7	0
3	1682823	133.8	0
3	1684564	133.9	0
3	1686396	134	0
3	1688114	134.1	0
3	1689859	134.2	0
3	1691577	134.3	0
3	1693289	134.4	0
3	1695075	134.5	0
3	1696724	134.6	0
3	1698541	134.7	0
3	1700277	134.8	0
3	1702118	134.9	0
3	1703841	135	0
3	1705548	135.1	0
3	1707257	135.2	0
3	1709031	135.3	0
3	1710772	135.4	0
3	1712424	135.5	0
3	1714208	135.6	0
3	1715890	135.7	0
3	1717604	135.8	0
3	1719355	135.9	0
3	1721046	136	0
3	1722788	136.1	0
3	1724500	136.2	0
3	1726348	136.3	0
3	1728075	136.4	0
3	1729830	136.5	0
3	1731586	136.6	0
3	1733272	136.7	0
3	1734882	136.8	0
3	1736521	136.9	0
3	1738270	137	0
3	1740014	137.1	0
3	1741772	137.2	0
3	1743554	137.3	0
3	1745263	137.4	0
3	1746920	137.5	0
3	1748695	137.6	0
3	1750592	137.7	0
3	1752382	137.8	0
3	1754083	137.9	0
3	1755860	138	0
3	1757615	138.1	0
3	1759241	138.2	0
3	1760970	138.3	0
3	1762724	138.4	0
3	1764355	138.5	0
3	1766087	138.6	0
3	1767933	138.7	0
3	1769623	138.8	0
3	1771372	138.9	0
3	1773060	139	0
3	1774731	139.1	0
3	1776426	139.2	0
3	1778126	139.3	0
3	1779909	139.4	0
3	1781627	139.5	0
3	1783365	139.6	0
3	1785038	139.7	0
3	1786800	139.8	0
3	1788443	139.9	0
3	1790163	140	0
3	1791869	140.1	0
3	1793609	140.2	0
3	1795492	140.3	0
3	1797349	140.4	0
3	1799119	140.5	0
3	1800835	140.6	0
3	1802647	140.7	0
3	1804558	140.8	0
3	1806351	140.9	0
3	1808178	141	0
3	1809802	141.1	0
3	1811494	141.2	0
3	1813199	141.3	0
3	1814919	141.4	0
3	1816595	141.5	0
3	1818257	141.6	0
3	1820080	141.7	0
3	1821790	141.8	0
3	1823629	141.9	0
3	1825261	142	0
3	1826922	142.1	0
3	1828655	142.2	0
3	1830399	142.3	0
3	1832061	142.4	0
3	1833889	142.5	0
3	1835588	142.6	0
3	1837306	142.7	0
3	1839260	142.8	0
3	1841131	142.9	0
3	1842941	143	0
3	1844724	143.1	0
3	1846539	143.2	0
3	1848412	143.3	0
3	1850192	143.4	0
3	1852073	143.5	0
3	1853970	143.6	0
3	1855883	143.7	0
3	1857700	143.8	0
3	1859394	143.9	0
3	1861217	144	0
3	1863014	144.1	0
3	1864743	144.2	0
3	1866487	144.3	0
3	1868273	144.4	0
3	1870072	144.5	0
3	1871897	144.6	0
3	1873794	144.7	0
3	1875690	144.8	0
3	1877451	144.9	0
3	1879294	145	0
3	1881089	145.1	0
3	1882960	145.2	0
3	1884782	145.3	0
3	1886652	145.4	0
3	1888365	145.5	0
3	1890173	145.6	0
3	1892010	145.7	0
3	1893845	145.8	0
3	1895616	145.9	0
3	1897593	146	0
3	1899454	146.1	0
3	1901166	146.2	0
3	1903077	146.3	0
3	1904773	146.4	0
3	1906476	146.5	0
3	1908249	146.6	0
3	1910038	146.7	0
3	1911789	146.8	0
3	1913537	146.9	0
3	1915323	147	0
3	1917253	147.1	0
3	1919010	147.2	0
3	1920734	147.3	0
3	1922583	147.4	0
3	1924297	147.5	0
3	1926000	147.6	0
3	1927797	147.7	0
3	1929632	147.8	0
3	1931370	147.9	0
3	1933218	148	0
3	1934976	148.1	0
3	1936748	148.2	0
3	1938423	148.3	0
3	1940161	148.4	0
3	1942076	148.5	0
3	1943948	148.6	0
3	1945665	148.7	0
3	1947460	148.8	0
3	1949256	148.9	0
3	1951000	149	0
3	1952802	149.1	0
3	1954548	149.2	0
3	1956169	149.3	0
3	1957933	149.4	0
3	1959704	149.5	0
3	1961462	149.6	0
3	1963147	149.7	0
3	1964864	149.8	0
3	1966719	149.9	0
3	1968623	150	0
3	1970370	150.1	0
3	1972072	150.2	0
3	1973756	150.3	0
3	1975625	150.4	0
3	1977481	150.5	0
3	1979364	150.6	0
3	1981069	150.7	0
3	1982674	150.8	0
3	1984255	150.9	0
3	1985916	151	0
3	1987747	151.1	0
3	1989515	151.2	0
3	1991234	151.3	0
3	1993127	151.4	0
3	1994956	151.5	0
3	1996808	151.6	0
3	1998618	151.7	0
3	2000452	151.8	0
3	2002166	151.9	0
3	2003998	152	0
3	2005945	152.1	0
3	2007815	152.2	0
3	2009512	152.3	0
3	2011308	152.4	0
3	2013018	152.5	0
3	2014948	152.6	0
3	2016806	152.7	0
3	2018629	152.8	0
3	2020336	152.9	0
3	2022231	153	0
3	2023968	153.1	0
3	2025781	153.2	0
3	2027675	153.3	0
3	2029333	153.4	0
3	2031234	153.5	0
3	2032898	153.6	0
3	2034764	153.7	0
3	2036671	153.8	0
3	2038571	153.9	0
3	2040474	154	0
3	2042424	154.1	0
3	2044185	154.2	0
3	2046058	154.3	0
3	2047926	154.4	0
3	2049640	154.5	0
3	2051517	154.6	0
3	2053275	154.7	0
3	2055105	154.8	0
3	2056913	154.9	0
3	2058681	155	0
3	2060357	155.1	0
3	2062219	155.2	0
3	2064047	155.3	0
3	2065880	155.4	0
3	2067667	155.5	0
3	2069559	155.6	0
3	2071341	155.7	0
3	2073206	155.8	0
3	2074976	155.9	0
3	2076698	156	0
3	2078497	156.1	0
3	2080391	156.2	0
3	2082246	156.3	0
3	2084155	156.4	0
3	2085944	156.5	0
3	2087828	156.6	0
3	2089687	156.7	0
3	2091556	156.8	0
3	2093423	156.9	0
3	2095120	157	0
2	8	0.2	1.9
2	56	0.3	2.9
2	104	0.4	3.9
2	152	0.5	4.4652312381963
2	200	0.6	4.4652312381963
2	248	0.7	4.4652312381963
[...]
55	2739544	211.7	437.41175979665
55	2740360	211.8	437.85244126226
55	2741182	211.9	438.29312272786
55	2741991	212	438.73380419347
55	2742753	212.1	439.17448565907
55	2743472	212.2	439.61516712467
55	2744240	212.3	440.05584859028
55	2744992	212.4	440.49653005588
55	2745674	212.5	440.93721152149
55	2746440	212.6	441.37789298709
55	2747321	212.7	441.81857445269
55	2748068	212.8	442.2592559183
55	2748758	212.9	442.6999373839
55	2749468	213	443.14061884951
55	2750323	213.1	443.58130031511
55	2751028	213.2	444.02198178072
55	2751775	213.3	444.46266324632
55	2752525	213.4	444.90334471192
55	2753249	213.5	445.34402617753
55	2754066	213.6	445.78470764313
55	2754903	213.7	446.22538910874
55	2755716	213.8	446.66607057434
55	2756540	213.9	447.10675203994
55	2757334	214	447.54743350555
55	2757993	214.1	447.98811497115
55	2758727	214.2	448.42879643676
55	2759554	214.3	448.86947790236
55	2760389	214.4	449.31015936796
55	2761216	214.5	449.75084083357
55	2761976	214.6	450.19152229917
55	2762795	214.7	450.63220376478
55	2763582	214.8	451.07288523038
55	2764402	214.9	451.51356669599
55	2765099	215	451.95424816159
55	2765795	215.1	452.39492962719
55	2766559	215.2	452.8356110928
55	2767308	215.3	453.2762925584
55	2768150	215.4	453.71697402401
55	2768972	215.5	454.15765548961
55	2769685	215.6	454.59833695521
55	2770465	215.7	455.03901842082
55	2771114	215.8	455.47969988642
55	2771796	215.9	455.92038135203
55	2772609	216	456.36106281763
55	2773432	216.1	456.80174428323
55	2774257	216.2	457.24242574884
55	2775002	216.3	457.68310721444
55	2775679	216.4	458.12378868005
55	2776441	216.5	458.56447014565
55	2777108	216.6	459.00515161126
55	2777915	216.7	459.44583307686
55	2778578	216.8	459.88651454246
55	2779270	216.9	460.32719600807
55	2780049	217	460.76787747367
55	2780825	217.1	461.20855893928
55	2781556	217.2	461.64924040488
55	2782261	217.3	462.08992187048
55	2783126	217.4	462.53060333609
55	2783915	217.5	462.97128480169
55	2784629	217.6	463.4119662673
55	2785444	217.7	463.8526477329
55	2786309	217.8	464.2933291985
55	2787055	217.9	464.73401066411
55	2787879	218	465.17469212971
55	2788665	218.1	465.61537359532
55	2789475	218.2	466.05605506092
55	2790294	218.3	466.49673652652
55	2791073	218.4	466.93741799213
55	2791743	218.5	467.37809945773
55	2792425	218.6	467.81878092334
55	2793092	218.7	468.25946238894
55	2793749	218.8	468.70014385455
55	2794410	218.9	469.14082532015
55	2795109	219	469.58150678575
55	2795786	219.1	470.02218825136
55	2796450	219.2	470.46286971696
55	2797258	219.3	470.90355118257
55	2798015	219.4	471.34423264817
55	2798780	219.5	471.78491411377
55	2799517	219.6	472.20282696541
55	2800228	219.7	472.52598183962
55	2800930	219.8	472.79113671384
55	2801594	219.9	473.14429158805
55	2802256	220	473.5779624171
55	2802978	220.1	474.0186438827
55	2803791	220.2	474.45932534831
55	2804579	220.3	474.90000681391
55	2805378	220.4	475.34068827951
55	2806185	220.5	475.78136974512
55	2806876	220.6	476.22205121072
55	2807738	220.7	476.66273267633
55	2808495	220.8	477.10341414193
55	2809252	220.9	477.54409560754
55	2810013	221	477.98477707314
55	2810749	221.1	478.42545853874
55	2811452	221.2	478.86614000435
55	2812227	221.3	479.30682146995
55	2812996	221.4	479.74750293556
55	2813751	221.5	480.18818440116
55	2814568	221.6	480.62886586676
55	2815401	221.7	481.06954733237
55	2816245	221.8	481.51022879797
55	2817053	221.9	481.95091026358
55	2817813	222	482.39159172918
55	2818585	222.1	482.83227319478
55	2819344	222.2	483.27295466039
55	2820124	222.3	483.71363612599
55	2820900	222.4	484.1543175916
55	2821641	222.5	484.5949990572
55	2822370	222.6	485.0356805228
55	2823162	222.7	485.47636198841
55	2823929	222.8	485.91704345401
55	2824772	222.9	486.35772491962
55	2825524	223	486.79840638522
55	2826202	223.1	487.23908785083
55	2827029	223.2	487.67976931643
55	2827847	223.3	488.12045078203
55	2828711	223.4	488.56113224764
55	2829533	223.5	489.00181371324
55	2830347	223.6	489.44249517885
55	2831098	223.7	489.88317664445
55	2831808	223.8	490.32385811005
55	2832602	223.9	490.76453957566
55	2833334	224	491.20522104126
55	2834154	224.1	491.64590250687
55	2834893	224.2	492.08658397247
55	2835777	224.3	492.52726543807
55	2836649	224.4	492.96794690368
55	2837446	224.5	493.40862836928
55	2838315	224.6	493.84930983489
55	2839093	224.7	494.28999130049
55	2839789	224.8	494.7306727661
55	2840559	224.9	495.1713542317
55	2841397	225	495.6120356973
55	2842106	225.1	496.05271716291
55	2842793	225.2	496.49339862851
55	2843668	225.3	496.93408009412
55	2844374	225.4	497.37476155972
55	2845077	225.5	497.81544302532
55	2845781	225.6	498.25612449093
55	2846542	225.7	498.69680595653
55	2847332	225.8	499.13748742214
55	2848099	225.9	499.57816888774
55	2848846	226	500.01885035334
55	2849559	226.1	500.45953181895
55	2850389	226.2	500.90021328455
55	2851139	226.3	501.34089475016
55	2851841	226.4	501.78157621576
55	2852539	226.5	502.22225768137
55	2853263	226.6	502.66293914697
55	2854059	226.7	503.10362061257
55	2854834	226.8	503.54430207818
55	2855616	226.9	503.98498354378
55	2856443	227	504.42566500939
55	2857195	227.1	504.86634647499
55	2857864	227.2	505.30702794059
55	2858642	227.3	505.7477094062
55	2859515	227.4	506.1883908718
55	2860337	227.5	506.62907233741
55	2861095	227.6	507.06975380301
55	2861872	227.7	507.51043526861
55	2862743	227.8	507.95111673422
55	2863447	227.9	508.39179819982
55	2864107	228	508.83247966543
55	2864821	228.1	509.27316113103
55	2865542	228.2	509.71384259664
55	2866336	228.3	510.15452406224
55	2867102	228.4	510.59520552784
55	2867781	228.5	511.03588699345
55	2868423	228.6	511.47656845905
55	2869044	228.7	511.91724992466
55	2869710	228.8	512.35793139026
55	2870366	228.9	512.79861285586
55	2870939	229	513.23929432147
55	2871578	229.1	513.67997578707
55	2872175	229.2	514.12065725268
55	2872823	229.3	514.56133871828
55	2873459	229.4	515.00202018388
55	2874130	229.5	515.44270164949
55	2874719	229.6	515.88338311509
55	2875462	229.7	516.3240645807
55	2876194	229.8	516.7647460463
55	2876814	229.9	517.2054275119
55	2877466	230	517.64610897751
55	2878105	230.1	518.08679044311
55	2878661	230.2	518.52747190872
55	2879271	230.3	518.96815337432
55	2879847	230.4	519.40883483993
55	2880406	230.5	519.84951630553
55	2880990	230.6	520.29019777113
55	2881726	230.7	520.73087923674
55	2882395	230.8	521.17156070234
55	2883128	230.9	521.61224216795
55	2883874	231	522.05292363355
55	2884541	231.1	522.49360509915
55	2885291	231.2	522.93428656476
55	2885925	231.3	523.37496803036
55	2886554	231.4	523.81564949597
55	2887155	231.5	524.25633096157
55	2887768	231.6	524.69701242717
55	2888430	231.7	525.13769389278
55	2889159	231.8	525.57837535838
55	2889809	231.9	526.01905682399
55	2890477	232	526.45973828959
55	2891115	232.1	526.9004197552
55	2891716	232.2	527.3411012208
55	2892363	232.3	527.7817826864
55	2893010	232.4	528.22246415201
55	2893597	232.5	528.66314561761
55	2894217	232.6	529.10382708322
55	2894862	232.7	529.54450854882
55	2895462	232.8	529.98519001442
55	2896067	232.9	530.42587148003
55	2896640	233	530.86655294563
55	2897302	233.1	531.30723441124
55	2897967	233.2	531.74791587684
55	2898602	233.3	532.18859734244
55	2899224	233.4	532.62927880805
55	2899872	233.5	533.06996027365
55	2900511	233.6	533.51064173926
55	2901136	233.7	533.95132320486
55	2901786	233.8	534.39200467047
55	2902439	233.9	534.83268613607
55	2903112	234	535.27336760167
55	2903780	234.1	535.71404906728
55	2904450	234.2	536.15473053288
55	2905198	234.3	536.59541199849
55	2905939	234.4	537.03609346409
55	2906548	234.5	537.47677492969
55	2907103	234.6	537.9174563953
55	2907718	234.7	538.3581378609
55	2908352	234.8	538.79881932651
55	2909018	234.9	539.23950079211
55	2909672	235	539.68018225771
55	2910314	235.1	540.12086372332
55	2910961	235.2	540.56154518892
55	2911519	235.3	541.00222665453
55	2912098	235.4	541.44290812013
55	2912745	235.5	541.88358958574
55	2913412	235.6	542.32427105134
55	2914069	235.7	542.76495251694
55	2914722	235.8	543.20563398255
55	2915301	235.9	543.64631544815
55	2915951	236	544.08699691376
55	2916622	236.1	544.52767837936
55	2917264	236.2	544.96835984496
55	2917876	236.3	545.40904131057
55	2918514	236.4	545.84972277617
55	2919079	236.5	546.29040424178
55	2919637	236.6	546.73108570738
55	2920216	236.7	547.17176717298
55	2920901	236.8	547.61244863859
55	2921549	236.9	548.05313010419
55	2922119	237	548.4938115698
55	2922791	237.1	548.9344930354
55	2923538	237.2	549.375174501
55	2924197	237.3	549.81585596661
55	2924849	237.4	550.25653743221
55	2925476	237.5	550.69721889782
55	2926098	237.6	551.13790036342
55	2926685	237.7	551.57858182903
55	2927240	237.8	552.01926329463
55	2927801	237.9	552.45994476023
55	2928366	238	552.90062622584
55	2929019	238.1	553.34130769144
55	2929528	238.2	553.78198915705
55	2930040	238.3	554.22267062265
55	2930479	238.4	554.66335208825
55	2931028	238.5	555.10403355386
55	2931573	238.6	555.54471501946
55	2932105	238.7	555.98539648507
55	2932644	238.8	556.42607795067
55	2933180	238.9	556.86675941627
55	2933659	239	557.30744088188
55	2934200	239.1	557.74812234748
55	2934722	239.2	558.18880381309
55	2935199	239.3	558.62948527869
55	2935737	239.4	559.0701667443
55	2936207	239.5	559.5108482099
55	2936742	239.6	559.9515296755
55	2937216	239.7	560.39221114111
55	2937679	239.8	560.83289260671
55	2938207	239.9	561.27357407232
55	2938658	240	561.71425553792
55	2939133	240.1	562.15493700352
55	2939589	240.2	562.59561846913
55	2940037	240.3	563.03629993473
55	2940507	240.4	563.47698140034
55	2941047	240.5	563.91766286594
55	2941585	240.6	564.35834433154
55	2942132	240.7	564.79902579715
55	2942585	240.8	565.23970726275
55	2943111	240.9	565.68038872836
55	2943569	241	566.12107019396
55	2944036	241.1	566.56175165957
55	2944498	241.2	567.00243312517
55	2944970	241.3	567.44311459077
55	2945514	241.4	567.88379605638
55	2945984	241.5	568.32447752198
55	2946431	241.6	568.76515898759
55	2946892	241.7	569.20584045319
55	2947344	241.8	569.64652191879
55	2947776	241.9	570.0872033844
55	2948321	242	570.52788485
55	2948714	242.1	570.96856631561
55	2949085	242.2	571.40924778121
55	2949404	242.3	571.84992924681
55	2949722	242.4	572.29061071242
55	2950051	242.5	572.73129217802
55	2950414	242.6	573.17197364363
55	2950702	242.7	573.61265510923
55	2951031	242.8	574.05333657483
55	2951349	242.9	574.49401804044
55	2951667	243	574.93469950604
55	2951984	243.1	575.37538097165
55	2952361	243.2	575.81606243725
55	2952676	243.3	576.25674390286
55	2953046	243.4	576.69742536846
55	2953353	243.5	577.13810683406
55	2953643	243.6	577.57878829967
55	2953961	243.7	578.01946976527
55	2954350	243.8	578.46015123088
55	2954665	243.9	578.90083269648
55	2954982	244	579.34151416208
55	2955361	244.1	579.78219562769
55	2955657	244.2	580.22287709329
55	2955975	244.3	580.6635585589
55	2956365	244.4	581.1042400245
55	2956733	244.5	581.5449214901
55	2957060	244.6	581.98560295571
55	2957412	244.7	582.42628442131
55	2957748	244.8	582.86696588692
55	2958118	244.9	583.30764735252
55	2958423	245	583.74832881813
55	2958788	245.1	584.18901028373
55	2959101	245.2	584.62969174933
55	2959408	245.3	585.07037321494
55	2959714	245.4	585.51105468054
55	2960033	245.5	585.95173614615
55	2960417	245.6	586.39241761175
55	2960782	245.7	586.83309907735
55	2960996	245.8	587.27378054296
55	2961243	245.9	587.71446200856
55	2961483	246	588.15514347417
55	2961722	246.1	588.59582493977
55	2961951	246.2	589.03650640537
55	2962139	246.3	589.47718787098
55	2962337	246.4	589.91786933658
55	2962584	246.5	590.35855080219
55	2962814	246.6	590.79923226779
55	2963002	246.7	591.2399137334
55	2963240	246.8	591.680595199
55	2963432	246.9	592.1212766646
55	2963679	247	592.56195813021
55	2963908	247.1	593.00063437296
55	2964106	247.2	593.43695506917
55	2964344	247.3	593.87327576538
55	2964582	247.4	594.30959646159
55	2964737	247.5	594.74591715781
55	2964873	247.6	595.18223785402
55	2965002	247.7	595.61855855023
55	2965130	247.8	596.05487924644
55	2965260	247.9	596.49119994266
55	2965396	248	596.89038800574
55	2965532	248.1	597.2683284085
55	2965668	248.2	597.64626881126
55	2965804	248.3	598.02420921402
55	2965932	248.4	598.40214961678
55	2966068	248.5	598.78009001953
55	2966197	248.6	599.15803042229
55	2966327	248.7	599.48158249503
55	2966457	248.8	599.70834673668
55	2966593	248.9	599.93511097834
55	2966721	249	600.16187521999
55	2966857	249.1	600.38863946165
55	2966985	249.2	600.6154037033
55	2967121	249.3	600.84216794496
55	2967249	249.4	601.05520396034
55	2967385	249.5	601.11753548837
55	2967521	249.6	601.1798670164
55	2967650	249.7	601.24219854443
55	2967786	249.8	601.30453007246
55	2967922	249.9	601.36686160049
55	2968051	250	601.42919312852
55	2968187	250.1	601.49152465655
55	2968315	250.2	601.55385618458
55	2968445	250.3	601.6
55	2968575	250.4	601.6
55	2968711	250.5	601.6
55	2968847	250.6	601.6
55	2968977	250.7	601.6
55	2969106	250.8	601.6
55	2969235	250.9	601.6
55	2969371	251	601.6
55	2969499	251.1	601.6
55	2969635	251.2	601.6
55	2969771	251.3	601.6
55	2969907	251.4	601.6
55	2970037	251.5	601.6
55	2970165	251.6	601.6
55	2970301	251.7	601.6
55	2970437	251.8	601.6
55	2970566	251.9	601.6
55	2970702	252	601.6
55	2970830	252.1	601.6
55	2970966	252.2	601.6
55	2971102	252.3	601.6
55	2971231	252.4	601.6
55	2971361	252.5	601.6
55	2971497	252.6	601.6
55	2971633	252.7	601.6
55	2971769	252.8	601.6
55	2971905	252.9	601.6
55	2972041	253	601.6
55	2972177	253.1	601.6
55	2972307	253.2	601.6
55	2972435	253.3	601.6
55	2972571	253.4	601.6
55	2972707	253.5	601.6
55	2972843	253.6	601.6
55	2972973	253.7	601.6
55	2973109	253.8	601.6
55	2973238	253.9	601.6
55	2973374	254	601.6
55	2973503	254.1	601.6
55	2973631	254.2	601.6
55	2973760	254.3	601.6
55	2973889	254.4	601.6
55	2974025	254.5	601.6
55	2974154	254.6	601.6
55	2974283	254.7	601.6
55	2974348	254.8	601.6
55	2974400	254.9	601.6
55	2974448	255	601.6
55	2974500	255.1	601.6
55	2974552	255.2	601.6
55	2974604	255.3	601.6
55	2974656	255.4	601.6
55	2974708	255.5	601.6
55	2974760	255.6	601.6
55	2974812	255.7	601.6
55	2974864	255.8	601.6
55	2974916	255.9	601.6
55	2974968	256	601.6
55	2975020	256.1	601.6
55	2975072	256.2	601.6
55	2975124	256.3	601.6
55	2975176	256.4	601.6
55	2975224	256.5	601.6
55	2975276	256.6	601.6
55	2975328	256.7	601.6
55	2975380	256.8	601.6
55	2975432	256.9	601.6
55	2975484	257	601.6
55	2975536	257.1	601.6
55	2975588	257.2	601.6
55	2975636	257.3	601.6
55	2975688	257.4	601.6
55	2975740	257.5	601.6
55	2975792	257.6	601.6
55	2975844	257.7	601.6
55	2975892	257.8	601.6
55	2975940	257.9	601.6
55	2975992	258	601.6
55	2976044	258.1	601.6
55	2976096	258.2	601.6
55	2976148	258.3	601.6
55	2976196	258.4	601.6
55	2976248	258.5	601.6
55	2976296	258.6	601.6
55	2976348	258.7	601.6
55	2976400	258.8	601.6
55	2976452	258.9	601.6
55	2976504	259	601.6
55	2976556	259.1	601.6
55	2976608	259.2	601.6
55	2976660	259.3	601.6
55	2976712	259.4	601.6
55	2976764	259.5	601.6
55	2976816	259.6	601.6
55	2976868	259.7	601.6
55	2976920	259.8	601.6
55	2976972	259.9	601.6
55	2977024	260	601.6
55	2977076	260.1	601.6
55	2977128	260.2	601.6
55	2977180	260.3	601.6
55	2977232	260.4	601.6
55	2977284	260.5	601.6
55	2977336	260.6	601.6
55	2977388	260.7	601.6
55	2977440	260.8	601.6
55	2977492	260.9	601.6
55	2977544	261	601.6
55	2977596	261.1	601.6
55	2977648	261.2	601.6
55	2977700	261.3	601.6
55	2977752	261.4	601.6
55	2977804	261.5	601.6
55	2977852	261.6	601.6
55	2977904	261.7	601.6
55	2977956	261.8	601.6
55	2978008	261.9	601.6
55	2978056	262	601.6
55	2978108	262.1	601.6
55	2978160	262.2	601.6
55	2978212	262.3	601.6
55	2978264	262.4	601.6
55	2978316	262.5	601.6
55	2978368	262.6	601.6
55	2978416	262.7	601.6
55	2978468	262.8	601.6
55	2978520	262.9	601.6
55	2978572	263	601.6
55	2978624	263.1	601.6
55	2978676	263.2	601.6
55	2978728	263.3	601.6
55	2978780	263.4	601.6
55	2978832	263.5	601.6
55	2978884	263.6	601.6
55	2978936	263.7	601.6
55	2978988	263.8	601.6
55	2979040	263.9	601.6
55	2979092	264	601.6
55	2979144	264.1	601.6
55	2979196	264.2	601.6
55	2979248	264.3	601.6
55	2979300	264.4	601.6
55	2979352	264.5	601.6
55	2979404	264.6	601.6
55	2979456	264.7	601.6
55	2979504	264.8	601.6
55	2979556	264.9	601.6
55	2979604	265	601.6
55	2979656	265.1	601.6
55	2979708	265.2	601.6
55	2979756	265.3	601.6
55	2979808	265.4	601.6
55	2979856	265.5	601.6
55	2979908	265.6	601.6
55	2979960	265.7	601.6
55	2980012	265.8	601.6
55	2980064	265.9	601.6
55	2980116	266	601.6
55	2980168	266.1	601.6
55	2980220	266.2	601.6
55	2980272	266.3	601.6
55	2980324	266.4	601.6
55	2980376	266.5	601.6
55	2980428	266.6	601.6
55	2980480	266.7	601.6
55	2980532	266.8	601.6
55	2980584	266.9	601.6
55	2980636	267	601.6
55	2980688	267.1	601.6
55	2980740	267.2	601.6
55	2980792	267.3	601.6
55	2980844	267.4	601.6
55	2980896	267.5	601.6
55	2980948	267.6	601.6
55	2981000	267.7	601.6
55	2981048	267.8	601.6
55	2981100	267.9	601.6
55	2981152	268	601.6
55	2981204	268.1	601.6
55	2981256	268.2	601.6
55	2981308	268.3	601.6
55	2981360	268.4	601.6
55	2981412	268.5	601.6
55	2981464	268.6	601.6
55	2981516	268.7	601.6
55	2981568	268.8	601.6
55	2981620	268.9	601.6
55	2981672	269	601.6
55	2981724	269.1	601.6
55	2981776	269.2	601.6
55	2981828	269.3	601.6
55	2981880	269.4	601.6
55	2981932	269.5	601.6
55	2981984	269.6	601.6
55	2982036	269.7	601.6
55	2982088	269.8	601.64910929309
55	2982140	269.9	601.71141722128
55	2982192	270	601.77372514947
55	2982244	270.1	601.83603307766
55	2982296	270.2	601.89834100585
55	2982348	270.3	601.98874118809
55	2982400	270.4	602.21541957271
55	2982452	270.5	602.44209795733
55	2982504	270.6	602.66877634195
55	2982556	270.7	602.89545472657
55	2982608	270.8	603.20355802632
55	2982660	270.9	603.58165723784
55	2982712	271	603.95975644937
55	2982764	271.1	604.33785566089
55	2982816	271.2	604.71595487242
55	2982868	271.3	605.14719997213
55	2982920	271.4	605.58370400823
55	2982972	271.5	606.02020804434
55	2983024	271.6	606.45671208044
55	2983076	271.7	606.89321611654
55	2983128	271.8	607.33096160003
55	2983176	271.9	607.77164306563
55	2983228	272	608.21232453123
55	2983280	272.1	608.65300599684
55	2983332	272.2	609.09368746244
55	2983384	272.3	609.53436892805
55	2983436	272.4	609.97505039365
55	2983488	272.5	610.41573185926
55	2983540	272.6	610.85641332486
55	2983592	272.7	611.29709479046
55	2983644	272.8	611.73777625607
55	2983696	272.9	612.17845772167
55	2983748	273	612.61913918728
55	2983800	273.1	613.05982065288
55	2983848	273.2	613.50050211848
55	2983900	273.3	613.94118358409
55	2983952	273.4	614.38186504969
55	2984004	273.5	614.8225465153
55	2984056	273.6	615.2632279809
55	2984108	273.7	615.7039094465
55	2984160	273.8	616.14459091211
55	2984212	273.9	616.58527237771
55	2984264	274	617.02595384332
55	2984316	274.1	617.46663530892
55	2984368	274.2	617.90731677453
55	2984420	274.3	618.34799824013
55	2984472	274.4	618.78867970573
55	2984520	274.5	619.22936117134
55	2984568	274.6	619.67004263694
55	2984620	274.7	620.11072410255
55	2984672	274.8	620.55140556815
55	2984724	274.9	620.99208703375
55	2984776	275	621.43276849936
55	2984828	275.1	621.87344996496
55	2984880	275.2	622.31413143057
55	2984932	275.3	622.75481289617
55	2984984	275.4	623.19549436177
55	2985036	275.5	623.63617582738
55	2985088	275.6	624.07685729298
55	2985140	275.7	624.51753875859
55	2985192	275.8	624.95822022419
55	2985244	275.9	625.3989016898
55	2985296	276	625.8395831554
55	2985348	276.1	626.280264621
55	2985400	276.2	626.72094608661
55	2985452	276.3	627.16162755221
55	2985504	276.4	627.60230901782
55	2985556	276.5	628.04299048342
55	2985604	276.6	628.48367194902
55	2985652	276.7	628.92435341463
55	2985704	276.8	629.36503488023
55	2985756	276.9	629.80571634584
55	2985808	277	630.24639781144
55	2985860	277.1	630.68707927704
55	2985912	277.2	631.12776074265
55	2985964	277.3	631.56844220825
55	2986016	277.4	632.00912367386
55	2986068	277.5	632.44980513946
55	2986120	277.6	632.89048660507
55	2986172	277.7	633.33116807067
55	2986224	277.8	633.77184953627
55	2986276	277.9	634.21253100188
55	2986328	278	634.65321246748
55	2986380	278.1	635.09389393309
55	2986428	278.2	635.53457539869
55	2986480	278.3	635.97525686429
55	2986532	278.4	636.4159383299
55	2986584	278.5	636.8566197955
55	2986636	278.6	637.29730126111

