version 3
run General-0-20230610-15:08:11-89594
attr configname General
attr datetime 20230610-15:08:11
attr datetimef 20230610-150811
attr experiment General
attr inifile omnetpp.ini
attr iterationvars ""
attr iterationvarsd ""
attr iterationvarsf ""
attr measurement ""
attr network myHospitalNetwork
attr processid 89594
attr repetition 0
attr replication #0
attr resultdir results
attr runnumber 0
attr seedset 0
config image-path ../../../inet/images:../../../veins/images
config cmdenv-express-mode true
config cmdenv-autoflush true
config cmdenv-status-frequency 0.1s
config **.cmdenv-log-level info
config ned-path .
config image-path ../../images
config network myHospitalNetwork
config debug-on-errors true
config print-undisposed false
config sim-time-limit 3600s
config **.scalar-recording true
config **.vector-recording true
config *.playgroundSizeX 2500m
config *.playgroundSizeY 2500m
config *.playgroundSizeZ 50m
config *.annotations.draw true
config *.manager.updateInterval 0.1s
config *.manager.host "\"localhost\""
config *.manager.port 9999
config *.manager.autoShutdown true
config *.manager.launchConfig "xmldoc(\"vd012.launchd.xml\")"
config *.manager.moduleType "\"agv=org.car2x.veins.nodes.Car pedestrian=gr2.veins_inet.IPerson\""
config *.manager.moduleName "\"agv=node pedestrian=personNode\""
config *.manager.moduleDisplayString "\"agv='i=veins/node/car;is=vs' pedestrian='i=veins/node/pedestrian;is=vs'\""
config *.rsu[0].mobility.x 300
config *.rsu[0].mobility.y 300
config *.rsu[0].mobility.z 3
config *.rsu[*].applType "\"HospitalControlApp\""
config *.rsu[*].appl.headerLength "80 bit"
config *.rsu[*].appl.sendBeacons false
config *.rsu[*].appl.dataOnSch false
config *.rsu[*].nic.phy80211p.antennaOffsetZ "0 m"
config *.connectionManager.sendDirect true
config *.connectionManager.maxInterfDist 2600m
config *.connectionManager.drawMaxIntfDist false
config *.**.nic.mac1609_4.useServiceChannel true
config *.**.nic.mac1609_4.txPower 20mW
config *.**.nic.mac1609_4.bitrate 6Mbps
config *.**.nic.phy80211p.minPowerLevel -110dBm
config *.**.nic.phy80211p.useNoiseFloor true
config *.**.nic.phy80211p.noiseFloor -98dBm
config *.**.nic.phy80211p.decider "xmldoc(\"config.xml\")"
config *.**.nic.phy80211p.analogueModels "xmldoc(\"config.xml\")"
config *.**.nic.phy80211p.usePropagationDelay true
config *.**.nic.phy80211p.antenna "xmldoc(\"antenna.xml\", \"/root/Antenna[@id='monopole']\")"
config *.node[*].nic.phy80211p.antennaOffsetY "0 m"
config *.node[*].nic.phy80211p.antennaOffsetZ "1.895 m"
config *.node[*].applType "\"AGVControlApp\""
config *.node[*].appl.headerLength "80 bit"
config *.node[*].appl.sendBeacons false
config *.node[*].appl.dataOnSch true
config *.node[*].appl.beaconInterval 0.1s
config *.node[*].veinsmobility.x 0
config *.node[*].veinsmobility.y 0
config *.node[*].veinsmobility.z 0
config *.node[*].veinsmobility.setHostSpeed false
config *.node[*0].veinsmobility.accidentCount 0

vector 0 myHospitalNetwork.node[0].veinsmobility posx ETV
vector 1 myHospitalNetwork.node[0].veinsmobility posy ETV
vector 2 myHospitalNetwork.node[0].veinsmobility speed ETV
vector 3 myHospitalNetwork.node[0].veinsmobility acceleration ETV
vector 4 myHospitalNetwork.node[0].veinsmobility co2emission ETV
vector 5 myHospitalNetwork.node[1].veinsmobility posx ETV
vector 6 myHospitalNetwork.node[1].veinsmobility posy ETV
vector 7 myHospitalNetwork.node[1].veinsmobility speed ETV
vector 8 myHospitalNetwork.node[1].veinsmobility acceleration ETV
vector 9 myHospitalNetwork.node[1].veinsmobility co2emission ETV
vector 10 myHospitalNetwork.node[2].veinsmobility posx ETV
vector 11 myHospitalNetwork.node[2].veinsmobility posy ETV
vector 12 myHospitalNetwork.node[3].veinsmobility posx ETV
vector 13 myHospitalNetwork.node[3].veinsmobility posy ETV
vector 14 myHospitalNetwork.node[2].veinsmobility speed ETV
vector 15 myHospitalNetwork.node[3].veinsmobility speed ETV
vector 16 myHospitalNetwork.node[2].veinsmobility acceleration ETV
vector 17 myHospitalNetwork.node[2].veinsmobility co2emission ETV
vector 18 myHospitalNetwork.node[3].veinsmobility acceleration ETV
vector 19 myHospitalNetwork.node[3].veinsmobility co2emission ETV
vector 20 myHospitalNetwork.node[4].veinsmobility posx ETV
vector 21 myHospitalNetwork.node[4].veinsmobility posy ETV
vector 22 myHospitalNetwork.node[5].veinsmobility posx ETV
vector 23 myHospitalNetwork.node[5].veinsmobility posy ETV
vector 24 myHospitalNetwork.node[4].veinsmobility speed ETV
vector 25 myHospitalNetwork.node[5].veinsmobility speed ETV
vector 26 myHospitalNetwork.node[4].veinsmobility acceleration ETV
vector 27 myHospitalNetwork.node[4].veinsmobility co2emission ETV
vector 28 myHospitalNetwork.node[5].veinsmobility acceleration ETV
vector 29 myHospitalNetwork.node[5].veinsmobility co2emission ETV
vector 30 myHospitalNetwork.node[6].veinsmobility posx ETV
vector 31 myHospitalNetwork.node[6].veinsmobility posy ETV
vector 32 myHospitalNetwork.node[6].veinsmobility speed ETV
vector 33 myHospitalNetwork.node[6].veinsmobility acceleration ETV
vector 34 myHospitalNetwork.node[6].veinsmobility co2emission ETV
vector 35 myHospitalNetwork.node[7].veinsmobility posx ETV
vector 36 myHospitalNetwork.node[7].veinsmobility posy ETV
vector 37 myHospitalNetwork.node[7].veinsmobility speed ETV
vector 38 myHospitalNetwork.node[7].veinsmobility acceleration ETV
vector 39 myHospitalNetwork.node[7].veinsmobility co2emission ETV
vector 40 myHospitalNetwork.node[8].veinsmobility posx ETV
vector 41 myHospitalNetwork.node[8].veinsmobility posy ETV
vector 42 myHospitalNetwork.node[8].veinsmobility speed ETV
vector 43 myHospitalNetwork.node[8].veinsmobility acceleration ETV
vector 44 myHospitalNetwork.node[8].veinsmobility co2emission ETV
vector 45 myHospitalNetwork.node[9].veinsmobility posx ETV
vector 46 myHospitalNetwork.node[9].veinsmobility posy ETV
vector 47 myHospitalNetwork.node[9].veinsmobility speed ETV
vector 48 myHospitalNetwork.node[9].veinsmobility acceleration ETV
vector 49 myHospitalNetwork.node[9].veinsmobility co2emission ETV
vector 50 myHospitalNetwork.node[10].veinsmobility posx ETV
vector 51 myHospitalNetwork.node[10].veinsmobility posy ETV
vector 52 myHospitalNetwork.node[10].veinsmobility speed ETV
vector 53 myHospitalNetwork.node[10].veinsmobility acceleration ETV
vector 54 myHospitalNetwork.node[10].veinsmobility co2emission ETV
0	3	0.1	26.245
0	8	0.2	26.39
0	56	0.3	26.635
0	104	0.4	26.98
0	152	0.5	27.41326156191
0	200	0.6	27.859784685729
0	248	0.7	28.306307809549
0	296	0.8	28.752830933369
0	344	0.9	29.199354057188
0	392	1	29.645877181008
0	440	1.1	30.092400304828
0	508	1.2	30.538923428647
0	590	1.3	30.985446552467
0	672	1.4	31.431969676286
0	754	1.5	31.878492800106
0	836	1.6	32.325015923926
0	918	1.7	32.771539047745
0	1000	1.8	33.218062171565
0	1082	1.9	33.664585295385
0	1164	2	34.111108419204
0	1246	2.1	34.557631543024
0	1374	2.2	35.004154666843
0	1618	2.3	35.450677790663
0	1905	2.4	35.897200914483
0	2184	2.5	36.343724038302
0	2481	2.6	36.790247162122
0	2760	2.7	37.236770285942
0	3058	2.8	37.683293409761
0	3338	2.9	38.129816533581
0	3625	3	38.5763396574
0	3896	3.1	39.02286278122
0	4197	3.2	39.46938590504
0	4488	3.3	39.915909028859
0	4780	3.4	40.362432152679
0	5053	3.5	40.808955276499
0	5341	3.6	41.255478400318
0	5622	3.7	41.702001524138
0	5923	3.8	42.148524647957
0	6200	3.9	42.595047771777
0	6502	4	43.039180427538
0	6794	4.1	43.481284975759
0	7095	4.2	43.923389523979
0	7368	4.3	44.365494072199
0	7669	4.4	44.80759862042
0	7937	4.5	45.24970316864
0	8233	4.6	45.69180771686
0	8501	4.7	46.133912265081
0	8783	4.8	46.576016813301
0	9072	4.9	46.968866230378
0	9371	5	47.351816597999
0	9648	5.1	47.734766965621
0	9934	5.2	48.117717333242
0	10213	5.3	48.500667700864
0	10502	5.4	48.883618068485
0	10765	5.5	49.266568436107
0	11054	5.6	49.549711282237
0	11328	5.7	49.77948150281
0	11621	5.8	50.009251723383
0	11889	5.9	50.239021943956
0	12184	6	50.468792164529
0	12452	6.1	50.698562385101
0	12753	6.2	50.928332605674
0	13027	6.3	51.079714624736
0	13313	6.4	51.142872417339
0	13584	6.5	51.206030209942
0	13872	6.6	51.269188002545
0	14152	6.7	51.332345795148
0	14452	6.8	51.395503587751
0	14725	6.9	51.458661380354
0	15026	7	51.521819172957
0	15305	7.1	51.58497696556
0	15592	7.2	51.6
0	15853	7.3	51.6
0	16150	7.4	51.6
0	16429	7.5	51.6
0	16723	7.6	51.6
0	17002	7.7	51.6
0	17294	7.8	51.6
0	17571	7.9	51.6
0	17851	8	51.6
0	18128	8.1	51.6
0	18521	8.2	51.6
0	19035	8.3	51.6
0	19538	8.4	51.6
0	20085	8.5	51.6
0	20605	8.6	51.6
0	21160	8.7	51.6
0	21717	8.8	51.6
0	22253	8.9	51.6
0	22797	9	51.6
0	23327	9.1	51.6
0	23947	9.2	51.6
0	24633	9.3	51.6
0	25288	9.4	51.6
0	26027	9.5	51.6
0	26754	9.6	51.6
0	27438	9.7	51.6
0	28093	9.8	51.6
0	28852	9.9	51.6
0	29616	10	51.6
0	30358	10.1	51.6
0	31078	10.2	51.6
0	31876	10.3	51.6
0	32614	10.4	51.6
0	33421	10.5	51.6
0	34175	10.6	51.6
0	34904	10.7	51.6
0	35674	10.8	51.6
0	36414	10.9	51.6
0	37137	11	51.6
0	37929	11.1	51.6
0	38704	11.2	51.6
0	39481	11.3	51.6
0	40233	11.4	51.6
0	40926	11.5	51.6
0	41637	11.6	51.6
0	42342	11.7	51.6
0	43051	11.8	51.6
0	43756	11.9	51.6
0	44453	12	51.6
0	45155	12.1	51.6
0	45946	12.2	51.6
0	46735	12.3	51.6
0	47624	12.4	51.6
0	48420	12.5	51.6
0	49097	12.6	51.6
0	49810	12.7	51.6
0	50512	12.8	51.6
0	51164	12.9	51.6
0	51836	13	51.6
0	52546	13.1	51.6
0	53351	13.2	51.6
0	54104	13.3	51.6
0	54836	13.4	51.6
0	55492	13.5	51.6
0	56271	13.6	51.6
0	57112	13.7	51.6
0	57860	13.8	51.6
0	58599	13.9	51.6
0	59293	14	51.6
0	60035	14.1	51.6
0	60854	14.2	51.6
0	61616	14.3	51.6
0	62408	14.4	51.6
0	63171	14.5	51.6
0	63975	14.6	51.6
0	64752	14.7	51.6
0	65561	14.8	51.6
0	66313	14.9	51.6
0	67043	15	51.6
0	67834	15.1	51.602211842443
0	68606	15.2	51.665369635046
0	69386	15.3	51.728527427649
0	70098	15.4	51.791685220252
0	70860	15.5	51.854843012855
0	71639	15.6	51.918000805458
0	72319	15.7	52.063356050838
0	73069	15.8	52.293126271411
0	73802	15.9	52.522896491984
0	74597	16	52.752666712557
0	75328	16.1	52.982436933129
0	76036	16.2	53.353678589504
0	76824	16.3	53.736628957125
0	77597	16.4	54.119579324747
0	78425	16.5	54.502529692368
0	79185	16.6	54.906407607301
0	79936	16.7	55.348512155521
0	80672	16.8	55.790616703742
0	81420	16.9	56.232721251962
0	82131	17	56.674825800182
0	82852	17.1	57.116930348403
0	83556	17.2	57.562623239787
0	84244	17.3	58.009146363607
0	84988	17.4	58.455669487426
0	85772	17.5	58.902192611246
0	86509	17.6	59.348715735066
0	87215	17.7	59.795238858885
0	87908	17.8	60.241761982705
0	88615	17.9	60.688285106525
0	89286	18	61.134808230344
0	90041	18.1	61.581331354164
0	90750	18.2	62.027854477983
0	91460	18.3	62.474377601803
0	92165	18.4	62.920900725623
0	92815	18.5	63.367423849442
0	93522	18.6	63.813946973262
0	94322	18.7	64.260470097082
0	95097	18.8	64.706993220901
0	95909	18.9	65.153516344721
0	96654	19	65.600039468541
0	97377	19.1	66.04656259236
0	98184	19.2	66.49308571618
0	98893	19.3	66.939608839999
0	99581	19.4	67.386131963819
0	100304	19.5	67.832655087639
0	101106	19.6	68.279178211458
0	101829	19.7	68.725701335278
0	102530	19.8	69.172224459098
0	103242	19.9	69.618747582917
0	103957	20	70.065270706737
0	104725	20.1	70.511793830556
0	105395	20.2	70.958316954376
0	106152	20.3	71.404840078196
0	106846	20.4	71.851363202015
0	107524	20.5	72.297886325835
0	108211	20.6	72.744409449655
0	108897	20.7	73.190932573474
0	109659	20.8	73.637455697294
0	110384	20.9	74.083978821113
0	111105	21	74.530501944933
0	111881	21.1	74.977025068753
0	112563	21.2	75.423548192572
0	113264	21.3	75.870071316392
0	113979	21.4	76.316594440211
0	114690	21.5	76.763117564031
0	115494	21.6	77.209640687851
0	116275	21.7	77.65616381167
0	116969	21.8	78.10268693549
0	117717	21.9	78.54921005931
0	118526	22	78.995733183129
0	119286	22.1	79.442256306949
0	120070	22.2	79.888779430769
0	120827	22.3	80.335302554588
0	121516	22.4	80.781825678408
0	122228	22.5	81.228348802227
0	122948	22.6	81.674871926047
0	123662	22.7	82.121395049867
0	124429	22.8	82.567918173686
0	125148	22.9	83.014441297506
0	125872	23	83.460964421326
0	126639	23.1	83.907487545145
0	127320	23.2	84.354010668965
0	128036	23.3	84.800533792784
0	128750	23.4	85.247056916604
0	129551	23.5	85.693580040424
0	130306	23.6	86.140103164243
0	131097	23.7	86.586626288063
0	131787	23.8	87.033149411883
0	132639	23.9	87.479672535702
0	133388	24	87.826195659522
0	134077	24.1	88.272718783341
0	134759	24.2	88.719241907161
0	135518	24.3	89.165765030981
0	136209	24.4	89.6122881548
0	136916	24.5	90.05881127862
0	137630	24.6	90.50533440244
0	138338	24.7	90.951857526259
0	139000	24.8	91.398380650079
0	139771	24.9	91.844903773898
0	140573	25	92.291426897718
0	141358	25.1	92.737950021538
0	142145	25.2	93.184473145357
0	142899	25.3	93.630996269177
0	143670	25.4	94.077519392997
0	144343	25.5	94.524042516816
0	145081	25.6	94.970565640636
0	145781	25.7	95.417088764455
0	146508	25.8	95.863611888275
0	147238	25.9	96.310135012095
0	148029	26	96.756658135914
0	148760	26.1	97.203181259734
0	149422	26.2	97.649704383554
0	150212	26.3	98.096227507373
0	150983	26.4	98.542750631193
0	151780	26.5	98.989273755012
0	152471	26.6	99.435796878832
0	153284	26.7	99.882320002652
0	154037	26.8	100.32884312647
0	154830	26.9	100.77536625029
0	155613	27	101.22188937411
0	156410	27.1	101.66841249793
0	157183	27.2	102.11493562175
0	158003	27.3	102.56145874557
0	158684	27.4	103.00798186939
0	159373	27.5	103.45450499321
0	160080	27.6	103.90102811703
0	160790	27.7	104.34755124085
0	161484	27.8	104.79407436467
0	162180	27.9	105.24059748849
0	162918	28	105.68712061231
0	163711	28.1	106.13364373613
0	164389	28.2	106.58016685995
0	165106	28.3	107.02668998377
0	165827	28.4	107.47321310759
0	166640	28.5	107.91973623141
0	167345	28.6	108.36625935522
0	168066	28.7	108.81278247904
0	168878	28.8	109.25930560286
0	169639	28.9	109.70582872668
0	170345	29	110.1523518505
0	171062	29.1	110.59887497432
0	171858	29.2	111.04539809814
0	172621	29.3	111.49192122196
0	173323	29.4	111.93844434578
0	174037	29.5	112.3849674696
0	174866	29.6	112.83149059342
0	175629	29.7	113.27801371724
0	176458	29.8	113.72453684106
0	177223	29.9	114.17105996488
0	178006	30	114.6175830887
0	178643	30.1	115.06410621252
0	179330	30.2	115.51062933634
0	180140	30.3	115.95715246016
0	180932	30.4	116.40367558398
0	181654	30.5	116.8501987078
0	182353	30.6	117.29672183162
0	183006	30.7	117.74324495544
0	183708	30.8	118.18976807926
0	184409	30.9	118.63629120308
0	185096	31	119.0828143269
0	185811	31.1	119.52933745072
0	186619	31.2	119.97586057453
0	187356	31.3	120.42238369835
0	188022	31.4	120.86890682217
0	188716	31.5	121.31542994599
0	189438	31.6	121.76195306981
0	190226	31.7	122.20847619363
0	191000	31.8	122.65499931745
0	191862	31.9	123.10152244127
0	192646	32	123.54804556509
0	193524	32.1	123.99456868891
0	194391	32.2	124.44109181273
0	195203	32.3	124.88761493655
0	196040	32.4	125.33413806037
0	196989	32.5	125.78066118419
0	197974	32.6	126.22718430801
0	198950	32.7	126.67370743183
0	199897	32.8	127.12023055565
0	200796	32.9	127.56675367947
0	201612	33	128.01327680329
0	202474	33.1	128.45979992711
0	203413	33.2	128.90632305093
0	204441	33.3	129.35284617475
0	205500	33.4	129.79936929857
0	206436	33.5	130.24589242239
0	207320	33.6	130.69241554621
0	208165	33.7	131.13893867003
0	209105	33.8	131.58546179385
0	210101	33.9	132.03198491766
0	211074	34	132.47850804148
0	211982	34.1	132.9250311653
0	212844	34.2	133.37155428912
0	213714	34.3	133.81807741294
0	214669	34.4	134.26460053676
0	215681	34.5	134.71112366058
0	216693	34.6	135.1576467844
0	217705	34.7	135.60416990822
0	218677	34.8	136.05069303204
0	219647	34.9	136.49721615586
0	220502	35	136.94373927968
0	221360	35.1	137.3902624035
0	222286	35.2	137.83678552732
0	223247	35.3	138.28330865114
0	224219	35.4	138.72983177496
0	225168	35.5	139.17635489878
0	226151	35.6	139.6228780226
0	227008	35.7	140.06940114642
0	227901	35.8	140.51592427024
0	228799	35.9	140.96244739406
0	229746	36	141.40897051788
0	230708	36.1	141.8554936417
0	231689	36.2	142.30201676552
0	232580	36.3	142.74853988934
0	233601	36.4	143.19506301316
0	234516	36.5	143.64158613698
0	235440	36.6	144.08810926079
0	236373	36.7	144.53463238461
0	237365	36.8	144.98115550843
0	238302	36.9	145.42767863225
0	239224	37	145.87420175607
0	240124	37.1	146.32072487989
0	241136	37.2	146.76724800371
0	242065	37.3	147.21377112753
0	242958	37.4	147.66029425135
0	243873	37.5	148.10681737517
0	244804	37.6	148.55334049899
0	245696	37.7	148.99986362281
0	246622	37.8	149.44638674663
0	247576	37.9	149.89290987045
0	248432	38	150.33943299427
0	249406	38.1	150.78595611809
0	250539	38.2	151.23247924191
0	251678	38.3	151.67900236573
0	252921	38.4	152.12552548955
0	254040	38.5	152.57204861337
0	255151	38.6	153.01857173719
0	256281	38.7	153.46509486101
0	257316	38.8	153.91161798483
0	258337	38.9	154.35814110865
0	259423	39	154.80466423247
0	260460	39.1	155.25118735629
0	261516	39.2	155.69771048011
0	262639	39.3	156.14423360392
0	263698	39.4	156.59075672774
0	264779	39.5	157.03727985156
0	265862	39.6	157.48380297538
0	266955	39.7	157.9303260992
0	268200	39.8	158.37684922302
0	269313	39.9	158.82337234684
0	270447	40	159.26989547066
0	271513	40.1	159.71641859448
0	272589	40.2	160.1629417183
0	273644	40.3	160.60946484212
0	274765	40.4	161.05598796594
0	275887	40.5	161.50251108976
0	276997	40.6	161.94903421358
0	278136	40.7	162.3955573374
0	279209	40.8	162.84208046122
0	280272	40.9	163.28860358504
0	281344	41	163.73512670886
0	282457	41.1	164.18164983268
0	283448	41.2	164.6281729565
0	284450	41.3	165.07469608032
0	285591	41.4	165.52121920414
0	286842	41.5	165.96774232796
0	288034	41.6	166.41426545178
0	289109	41.7	166.8607885756
0	290164	41.8	167.30731169942
0	291245	41.9	167.75383482323
0	292277	42	168.20035794705
0	293290	42.1	168.64688107087
0	294381	42.2	169.09340419469
0	295378	42.3	169.53992731851
0	296450	42.4	169.98645044233
0	297547	42.5	170.43297356615
0	298629	42.6	170.87949668997
0	299699	42.7	171.32601981379
0	300852	42.8	171.77254293761
0	302034	42.9	172.21906606143
0	303085	43	172.66558918525
0	304186	43.1	173.11211230907
0	305294	43.2	173.55863543289
0	306386	43.3	174.00515855671
0	307611	43.4	174.45168168053
0	308687	43.5	174.89820480435
0	309789	43.6	175.34472792817
0	310913	43.7	175.79125105199
0	312031	43.8	176.23777417581
0	313164	43.9	176.68429729963
0	314149	44	177.13082042345
0	315247	44.1	177.57734354727
0	316370	44.2	178.02386667109
0	317451	44.3	178.47038979491
0	318574	44.4	178.91691291873
0	319612	44.5	179.36343604255
0	320679	44.6	179.80995916636
0	321792	44.7	180.25648229018
0	322951	44.8	180.703005414
0	324127	44.9	181.14952853782
0	325200	45	181.59605166164
0	326342	45.1	182.04257478546
0	327548	45.2	182.48909790928
0	328674	45.3	182.9356210331
0	329700	45.4	183.38214415692
0	330740	45.5	183.82866728074
0	331794	45.6	184.27519040456
0	332810	45.7	184.72171352838
0	333857	45.8	185.1682366522
0	334853	45.9	185.61475977602
0	335954	46	186.06128289984
0	337016	46.1	186.50780602366
0	338141	46.2	186.95432914748
0	339151	46.3	187.4008522713
0	340200	46.4	187.84737539512
0	341286	46.5	188.29389851894
0	342353	46.6	188.74042164276
0	343374	46.7	189.18694476658
0	344520	46.8	189.6334678904
0	345673	46.9	190.07999101422
0	346723	47	190.52651413804
0	347890	47.1	190.97303726186
0	348959	47.2	191.41956038568
0	350027	47.3	191.86608350949
0	351074	47.4	192.31260663331
0	352120	47.5	192.75912975713
0	353086	47.6	193.20565288095
0	354119	47.7	193.65217600477
0	355256	47.8	194.09869912859
0	356230	47.9	194.54522225241
0	357235	48	194.99174537623
0	358264	48.1	195.43826850005
0	359376	48.2	195.88479162387
0	360549	48.3	196.33131474769
0	361661	48.4	196.77783787151
0	362760	48.5	197.22436099533
0	363889	48.6	197.67088411915
0	364994	48.7	198.11740724297
0	366088	48.8	198.56393036679
0	367309	48.9	199.01045349061
0	368431	49	199.45697661443
0	369610	49.1	199.90349973825
0	370633	49.2	200.35002286207
0	371758	49.3	200.79654598589
0	372885	49.4	201.24306910971
0	373940	49.5	201.68959223353
0	374942	49.6	202.13611535735
0	375945	49.7	202.58263848117
0	377001	49.8	203.02916160499
0	378131	49.9	203.4756847288
0	379146	50	203.92220785262
0	380154	50.1	204.36873097644
0	381106	50.2	204.81525410026
0	382178	50.3	205.26177722408
0	383280	50.4	205.7083003479
0	384309	50.5	206.15482347172
0	385349	50.6	206.60134659554
0	386386	50.7	207.04786971936
0	387522	50.8	207.49439284318
0	388590	50.9	207.940915967
0	389684	51	208.38743909082
0	390789	51.1	208.83396221464
0	391902	51.2	209.28048533846
0	393005	51.3	209.72700846228
0	394003	51.4	210.1735315861
0	395076	51.5	210.62005470992
0	396238	51.6	211.06657783374
0	397262	51.7	211.51310095756
0	398390	51.8	211.95962408138
0	399469	51.9	212.4061472052
0	400497	52	212.85267032902
0	401543	52.1	213.29919345284
0	402570	52.2	213.74571657666
0	403718	52.3	214.19223970048
0	404977	52.4	214.6387628243
0	406199	52.5	215.08528594812
0	407299	52.6	215.53180907193
0	408341	52.7	215.97833219575
0	409510	52.8	216.42485531957
0	410628	52.9	216.87137844339
0	411625	53	217.31790156721
0	412670	53.1	217.76442469103
0	413844	53.2	218.21094781485
0	414938	53.3	218.65747093867
0	415974	53.4	219.10399406249
0	417127	53.5	219.55051718631
0	418187	53.6	219.99704031013
0	419259	53.7	220.44356343395
0	420224	53.8	220.89008655777
0	421319	53.9	221.33660968159
0	422428	54	221.78313280541
0	423548	54.1	222.22965592923
0	424772	54.2	222.67617905305
0	425832	54.3	223.12270217687
0	426870	54.4	223.56922530069
0	427918	54.5	224.01574842451
0	429059	54.6	224.46227154833
0	430154	54.7	224.90879467215
0	431194	54.8	225.35531779597
0	432246	54.9	225.80184091979
0	433366	55	226.24836404361
0	434454	55.1	226.69488716743
0	435521	55.2	227.14141029125
0	436657	55.3	227.58793341506
0	437784	55.4	228.03445653888
0	438909	55.5	228.4809796627
0	440005	55.6	228.92750278652
0	441024	55.7	229.37402591034
0	442068	55.8	229.82054903416
0	443132	55.9	230.26707215798
0	444175	56	230.7135952818
0	445240	56.1	231.16011840562
0	446214	56.2	231.60664152944
0	447243	56.3	232.05316465326
0	448398	56.4	232.49968777708
0	449635	56.5	232.9462109009
0	450744	56.6	233.39273402472
0	451760	56.7	233.83925714854
0	452778	56.8	234.28578027236
0	453938	56.9	234.73230339618
0	455086	57	235.17882652
0	456243	57.1	235.62534964382
0	457377	57.2	236.07187276764
0	458508	57.3	236.51839589146
0	459571	57.4	236.96491901528
0	460608	57.5	237.4114421391
0	461699	57.6	237.85796526292
0	462826	57.7	238.30448838674
0	463962	57.8	238.75101151056
0	465040	57.9	239.19753463438
0	466099	58	239.64405775819
0	467225	58.1	240.09058088201
0	468267	58.2	240.53710400583
0	469333	58.3	240.98362712965
0	470456	58.4	241.43015025347
0	471498	58.5	241.87667337729
0	472604	58.6	242.32319650111
0	473628	58.7	242.76971962493
0	474663	58.8	243.21624274875
0	475846	58.9	243.66276587257
0	476895	59	244.10928899639
0	477903	59.1	244.55581212021
0	479049	59.2	245.00233524403
0	480118	59.3	245.44885836785
0	481240	59.4	245.89538149167
0	482305	59.5	246.34190461549
0	483384	59.6	246.78842773931
0	484375	59.7	247.23495086313
0	485498	59.8	247.68147398695
0	486655	59.9	248.12799711077
0	487780	60	248.57452023459
0	489054	60.1	249.02104335841
0	490230	60.2	249.46756648223
0	491411	60.3	249.91408960605
0	492633	60.4	250.36061272987
0	493737	60.5	250.80713585369
0	494803	60.6	251.25365897751
0	495873	60.7	251.70018210132
0	497031	60.8	252.14670522514
0	498257	60.9	252.59322834896
0	499411	61	253.03975147278
0	500438	61.1	253.4862745966
0	501496	61.2	253.93279772042
0	502659	61.3	254.37932084424
0	503828	61.4	254.82584396806
0	505015	61.5	255.27236709188
0	506128	61.6	255.7188902157
0	507195	61.7	256.16541333952
0	508351	61.8	256.61193646334
0	509518	61.9	257.05845958716
0	510569	62	257.50498271098
0	511657	62.1	257.9515058348
0	512949	62.2	258.39802895862
0	514359	62.3	258.84455208244
0	515692	62.4	259.29107520626
0	517028	62.5	259.73759833008
0	518417	62.6	260.1841214539
0	519720	62.7	260.63064457772
0	521015	62.8	261.07716770154
0	522299	62.9	261.52369082536
0	523655	63	261.97021394918
0	524958	63.1	262.416737073
0	526240	63.2	262.86326019682
0	527446	63.3	263.30978332063
0	528625	63.4	263.75630644445
0	529898	63.5	264.20282956827
0	531132	63.6	264.64935269209
0	532471	63.7	265.09587581591
0	533816	63.8	265.54239893973
0	535232	63.9	265.98892206355
0	536570	64	266.43544518737
0	537923	64.1	266.88196831119
0	539363	64.2	267.32849143501
0	540666	64.3	267.77501455883
0	542041	64.4	268.22153768265
0	543241	64.5	268.66806080647
0	544561	64.6	269.11458393029
0	545855	64.7	269.56110705411
0	547254	64.8	270.00763017793
0	548684	64.9	270.45415330175
0	549949	65	270.90067642557
0	551323	65.1	271.34719954939
0	552552	65.2	271.79372267321
0	553731	65.3	272.24024579703
0	555068	65.4	272.68676892085
0	556446	65.5	273.13329204467
0	557774	65.6	273.57981516849
0	559162	65.7	274.02633829231
0	560560	65.8	274.47286141613
0	561951	65.9	274.91938453995
0	563246	66	275.36590766376
0	564520	66.1	275.81243078758
0	565723	66.2	276.2589539114
0	567038	66.3	276.70547703522
0	568326	66.4	277.15200015904
0	569597	66.5	277.59852328286
0	570897	66.6	278.04504640668
0	572253	66.7	278.4915695305
0	573631	66.8	278.93809265432
0	574889	66.9	279.38461577814
0	576086	67	279.83113890196
0	577323	67.1	280.27766202578
0	578639	67.2	280.7241851496
0	579997	67.3	281.17070827342
0	581423	67.4	281.61723139724
0	582844	67.5	282.06375452106
0	584160	67.6	282.51027764488
0	585584	67.7	282.9568007687
0	586822	67.8	283.40332389252
0	588111	67.9	283.84984701634
0	589632	68	284.29637014016
0	591082	68.1	284.74289326398
0	592422	68.2	285.1894163878
0	593921	68.3	285.63593951162
0	595486	68.4	286.08246263544
0	596966	68.5	286.52898575926
0	598537	68.6	286.97550888308
0	600161	68.7	287.42203200689
0	601596	68.8	287.86855513071
0	603073	68.9	288.31507825453
0	604664	69	288.76160137835
0	606168	69.1	289.20812450217
0	607618	69.2	289.65464762599
0	609041	69.3	290.10117074981
0	610658	69.4	290.54769387363
0	612132	69.5	290.99421699745
0	613602	69.6	291.44074012127
0	615113	69.7	291.88726324509
0	616710	69.8	292.33378636891
0	618357	69.9	292.78030949273
0	619848	70	293.22683261655
0	621290	70.1	293.67335574037
0	622691	70.2	294.11987886419
0	624184	70.3	294.56640198801
0	625795	70.4	295.01292511183
0	627431	70.5	295.45944823565
0	628918	70.6	295.90597135947
0	630478	70.7	296.35249448329
0	632179	70.8	296.79901760711
0	633809	70.9	297.24554073093
0	635426	71	297.69206385475
0	636933	71.1	298.13858697857
0	638502	71.2	298.58511010239
0	639913	71.3	299.03163322621
0	641481	71.4	299.47815635002
0	643122	71.5	299.92467947384
0	644715	71.6	300.37120259766
0	646293	71.7	300.81772572148
0	647989	71.8	301.2642488453
0	649495	71.9	301.71077196912
0	650964	72	302.15729509294
0	652424	72.1	302.60381821676
0	653859	72.2	303.05034134058
0	655466	72.3	303.4968644644
0	656960	72.4	303.94338758822
0	658573	72.5	304.38991071204
0	660070	72.6	304.83643383586
0	661571	72.7	305.28295695968
0	663233	72.8	305.7294800835
0	664763	72.9	306.17600320732
0	666354	73	306.62252633114
0	667879	73.1	307.06904945496
0	669474	73.2	307.51557257878
0	670935	73.3	307.9620957026
0	672408	73.4	308.40861882642
0	674047	73.5	308.85514195024
0	675644	73.6	309.30166507406
0	677249	73.7	309.74818819788
0	678886	73.8	310.1947113217
0	680431	73.9	310.64123444552
0	681909	74	311.08775756933
0	683457	74.1	311.53428069315
0	684969	74.2	311.98080381697
1	3	0.1	164.1
1	8	0.2	164.1
1	56	0.3	164.1
1	104	0.4	164.1
1	152	0.5	164.1
1	200	0.6	164.1
1	248	0.7	164.1
1	296	0.8	164.1
1	344	0.9	164.1
1	392	1	164.1
1	440	1.1	164.1
1	508	1.2	164.1
1	590	1.3	164.1
1	672	1.4	164.1
1	754	1.5	164.1
1	836	1.6	164.1
1	918	1.7	164.1
1	1000	1.8	164.1
1	1082	1.9	164.1
1	1164	2	164.1
1	1246	2.1	164.1
1	1374	2.2	164.1
1	1618	2.3	164.1
1	1905	2.4	164.1
1	2184	2.5	164.1
1	2481	2.6	164.1
1	2760	2.7	164.1
1	3058	2.8	164.1
1	3338	2.9	164.1
1	3625	3	164.1
1	3896	3.1	164.1
1	4197	3.2	164.1
1	4488	3.3	164.1
1	4780	3.4	164.1
1	5053	3.5	164.1
1	5341	3.6	164.1
1	5622	3.7	164.1
1	5923	3.8	164.1
1	6200	3.9	164.1
1	6502	4	164.06583136749
1	6794	4.1	164.00267357489
1	7095	4.2	163.93951578229
1	7368	4.3	163.87635798969
1	7669	4.4	163.81320019708
1	7937	4.5	163.75004240448
1	8233	4.6	163.68688461188
1	8501	4.7	163.62372681927
1	8783	4.8	163.56056902667
1	9072	4.9	163.35868026177
1	9371	5	163.1289100412
1	9648	5.1	162.89913982063
1	9934	5.2	162.66936960005
1	10213	5.3	162.43959937948
1	10502	5.4	162.20982915891
1	10765	5.5	161.98005893834
1	11054	5.6	161.65048119627
1	11328	5.7	161.26753082865
1	11621	5.8	160.88458046103
1	11889	5.9	160.50163009341
1	12184	6	160.11867972579
1	12452	6.1	159.73572935816
1	12753	6.2	159.35277899054
1	13027	6.3	158.94199762685
1	13313	6.4	158.49989307863
1	13584	6.5	158.0577885304
1	13872	6.6	157.61568398218
1	14152	6.7	157.17357943396
1	14452	6.8	156.73147488574
1	14725	6.9	156.28937033752
1	15026	7	155.8472657893
1	15305	7.1	155.40516124108
1	15592	7.2	154.95968914218
1	15853	7.3	154.51316601836
1	16150	7.4	154.06664289454
1	16429	7.5	153.62011977072
1	16723	7.6	153.1735966469
1	17002	7.7	152.72707352308
1	17294	7.8	152.28055039926
1	17571	7.9	151.83402727544
1	17851	8	151.38750415162
1	18128	8.1	150.9409810278
1	18521	8.2	150.49445790398
1	19035	8.3	150.04793478016
1	19538	8.4	149.60141165634
1	20085	8.5	149.15488853252
1	20605	8.6	148.7083654087
1	21160	8.7	148.26184228488
1	21717	8.8	147.81531916106
1	22253	8.9	147.36879603724
1	22797	9	146.92227291342
1	23327	9.1	146.4757497896
1	23947	9.2	146.02922666578
1	24633	9.3	145.58270354196
1	25288	9.4	145.13618041814
1	26027	9.5	144.68965729432
1	26754	9.6	144.2431341705
1	27438	9.7	143.79661104668
1	28093	9.8	143.35008792286
1	28852	9.9	142.90356479905
1	29616	10	142.45704167523
1	30358	10.1	142.01051855141
1	31078	10.2	141.56399542759
1	31876	10.3	141.11747230377
1	32614	10.4	140.67094917995
1	33421	10.5	140.22442605613
1	34175	10.6	139.77790293231
1	34904	10.7	139.33137980849
1	35674	10.8	138.88485668467
1	36414	10.9	138.43833356085
1	37137	11	137.99181043703
1	37929	11.1	137.54528731321
1	38704	11.2	137.09876418939
1	39481	11.3	136.65224106557
1	40233	11.4	136.20571794175
1	40926	11.5	135.75919481793
1	41637	11.6	135.31267169411
1	42342	11.7	134.86614857029
1	43051	11.8	134.41962544647
1	43756	11.9	133.97310232265
1	44453	12	133.52643635068
1	45155	12.1	133.07939641769
1	45946	12.2	132.6323564847
1	46735	12.3	132.18531655171
1	47624	12.4	131.73827661872
1	48420	12.5	131.29123668573
1	49097	12.6	130.84419675274
1	49810	12.7	130.39715681975
1	50512	12.8	129.95011688676
1	51164	12.9	129.50307695377
1	51836	13	129.05603702078
1	52546	13.1	128.60899708779
1	53351	13.2	128.1619571548
1	54104	13.3	127.7149172218
1	54836	13.4	127.26787728881
1	55492	13.5	126.82083735582
1	56271	13.6	126.37379742283
1	57112	13.7	125.92675748984
1	57860	13.8	125.47971755685
1	58599	13.9	125.03267762386
1	59293	14	124.58611672244
1	60035	14.1	124.13959359862
1	60854	14.2	123.6930704748
1	61616	14.3	123.24654735098
1	62408	14.4	122.80002422716
1	63171	14.5	122.35350110334
1	63975	14.6	121.90697797952
1	64752	14.7	121.4604548557
1	65561	14.8	121.01498624721
1	66313	14.9	120.57148017152
1	67043	15	120.12797409584
1	67834	15.1	119.6845171029
1	68606	15.2	119.24241255468
1	69386	15.3	118.80030800646
1	70098	15.4	118.35820345824
1	70860	15.5	117.91609891002
1	71639	15.6	117.4739943618
1	72319	15.7	117.0610732486
1	73069	15.8	116.67812288098
1	73802	15.9	116.29517251336
1	74597	16	115.91222214574
1	75328	16.1	115.52927177812
1	76036	16.2	115.2877928463
1	76824	16.3	115.05802262572
1	77597	16.4	114.82825240515
1	78425	16.5	114.59848218458
1	79185	16.6	114.4276560561
1	79936	16.7	114.3644982635
1	80672	16.8	114.30134047089
1	81420	16.9	114.23818267829
1	82131	17	114.17502488569
1	82852	17.1	114.11186709309
1	83556	17.2	114.1
1	84244	17.3	114.1
1	84988	17.4	114.1
1	85772	17.5	114.1
1	86509	17.6	114.1
1	87215	17.7	114.1
1	87908	17.8	114.1
1	88615	17.9	114.1
1	89286	18	114.1
1	90041	18.1	114.1
1	90750	18.2	114.1
1	91460	18.3	114.1
1	92165	18.4	114.1
1	92815	18.5	114.1
1	93522	18.6	114.1
1	94322	18.7	114.1
1	95097	18.8	114.1
1	95909	18.9	114.1
1	96654	19	114.1
1	97377	19.1	114.1
1	98184	19.2	114.1
1	98893	19.3	114.1
1	99581	19.4	114.1
1	100304	19.5	114.1
1	101106	19.6	114.1
1	101829	19.7	114.1
1	102530	19.8	114.1
1	103242	19.9	114.1
1	103957	20	114.1
1	104725	20.1	114.1
1	105395	20.2	114.1
1	106152	20.3	114.1
1	106846	20.4	114.1
1	107524	20.5	114.1
1	108211	20.6	114.1
1	108897	20.7	114.1
1	109659	20.8	114.1
1	110384	20.9	114.1
1	111105	21	114.1
1	111881	21.1	114.1
1	112563	21.2	114.1
1	113264	21.3	114.1
1	113979	21.4	114.1
1	114690	21.5	114.1
1	115494	21.6	114.1
1	116275	21.7	114.1
1	116969	21.8	114.1
1	117717	21.9	114.1
1	118526	22	114.1
1	119286	22.1	114.1
1	120070	22.2	114.1
1	120827	22.3	114.1
1	121516	22.4	114.1
1	122228	22.5	114.1
1	122948	22.6	114.1
1	123662	22.7	114.1
1	124429	22.8	114.1
1	125148	22.9	114.1
1	125872	23	114.1
1	126639	23.1	114.1
1	127320	23.2	114.1
1	128036	23.3	114.1
1	128750	23.4	114.1
1	129551	23.5	114.1
1	130306	23.6	114.1
1	131097	23.7	114.1
1	131787	23.8	114.1
1	132639	23.9	114.1
1	133388	24	114.1
1	134077	24.1	114.1
1	134759	24.2	114.1
1	135518	24.3	114.1
1	136209	24.4	114.1
1	136916	24.5	114.1
1	137630	24.6	114.1
1	138338	24.7	114.1
1	139000	24.8	114.1
1	139771	24.9	114.1
1	140573	25	114.1
1	141358	25.1	114.1
1	142145	25.2	114.1
1	142899	25.3	114.1
1	143670	25.4	114.1
1	144343	25.5	114.1
1	145081	25.6	114.1
1	145781	25.7	114.1
1	146508	25.8	114.1
1	147238	25.9	114.1
1	148029	26	114.1
1	148760	26.1	114.1
1	149422	26.2	114.1
1	150212	26.3	114.1
1	150983	26.4	114.1
1	151780	26.5	114.1
1	152471	26.6	114.1
1	153284	26.7	114.1
1	154037	26.8	114.1
1	154830	26.9	114.1
1	155613	27	114.1
1	156410	27.1	114.1
1	157183	27.2	114.1
1	158003	27.3	114.1
1	158684	27.4	114.1
1	159373	27.5	114.1
1	160080	27.6	114.1
1	160790	27.7	114.1
1	161484	27.8	114.1
1	162180	27.9	114.1
1	162918	28	114.1
1	163711	28.1	114.1
1	164389	28.2	114.1
1	165106	28.3	114.1
1	165827	28.4	114.1
1	166640	28.5	114.1
1	167345	28.6	114.1
1	168066	28.7	114.1
1	168878	28.8	114.1
1	169639	28.9	114.1
1	170345	29	114.1
1	171062	29.1	114.1
1	171858	29.2	114.1
1	172621	29.3	114.1
1	173323	29.4	114.1
1	174037	29.5	114.1
1	174866	29.6	114.1
1	175629	29.7	114.1
1	176458	29.8	114.1
1	177223	29.9	114.1
1	178006	30	114.1
1	178643	30.1	114.1
1	179330	30.2	114.1
1	180140	30.3	114.1
1	180932	30.4	114.1
1	181654	30.5	114.1
1	182353	30.6	114.1
1	183006	30.7	114.1
1	183708	30.8	114.1
1	184409	30.9	114.1
1	185096	31	114.1
1	185811	31.1	114.1
1	186619	31.2	114.1
1	187356	31.3	114.1
1	188022	31.4	114.1
1	188716	31.5	114.1
1	189438	31.6	114.1
1	190226	31.7	114.1
1	191000	31.8	114.1
1	191862	31.9	114.1
1	192646	32	114.1
1	193524	32.1	114.1
1	194391	32.2	114.1
1	195203	32.3	114.1
1	196040	32.4	114.1
1	196989	32.5	114.1
1	197974	32.6	114.1
1	198950	32.7	114.1
1	199897	32.8	114.1
1	200796	32.9	114.1
1	201612	33	114.1
1	202474	33.1	114.1
1	203413	33.2	114.1
1	204441	33.3	114.1
1	205500	33.4	114.1
1	206436	33.5	114.1
1	207320	33.6	114.1
1	208165	33.7	114.1
1	209105	33.8	114.1
1	210101	33.9	114.1
1	211074	34	114.1
1	211982	34.1	114.1
1	212844	34.2	114.1
1	213714	34.3	114.1
1	214669	34.4	114.1
1	215681	34.5	114.1
1	216693	34.6	114.1
1	217705	34.7	114.1
1	218677	34.8	114.1
1	219647	34.9	114.1
1	220502	35	114.1
1	221360	35.1	114.1
1	222286	35.2	114.1
1	223247	35.3	114.1
1	224219	35.4	114.1
1	225168	35.5	114.1
1	226151	35.6	114.1
1	227008	35.7	114.1
1	227901	35.8	114.1
1	228799	35.9	114.1
1	229746	36	114.1
1	230708	36.1	114.1
1	231689	36.2	114.1
1	232580	36.3	114.1
1	233601	36.4	114.1
1	234516	36.5	114.1
1	235440	36.6	114.1
1	236373	36.7	114.1
1	237365	36.8	114.1
1	238302	36.9	114.1
1	239224	37	114.1
1	240124	37.1	114.1
1	241136	37.2	114.1
1	242065	37.3	114.1
1	242958	37.4	114.1
1	243873	37.5	114.1
1	244804	37.6	114.1
1	245696	37.7	114.1
1	246622	37.8	114.1
1	247576	37.9	114.1
1	248432	38	114.1
1	249406	38.1	114.1
1	250539	38.2	114.1
1	251678	38.3	114.1
1	252921	38.4	114.1
1	254040	38.5	114.1
1	255151	38.6	114.1
1	256281	38.7	114.1
1	257316	38.8	114.1
1	258337	38.9	114.1
1	259423	39	114.1
1	260460	39.1	114.1
1	261516	39.2	114.1
1	262639	39.3	114.1
1	263698	39.4	114.1
1	264779	39.5	114.1
1	265862	39.6	114.1
1	266955	39.7	114.1
1	268200	39.8	114.1
1	269313	39.9	114.1
1	270447	40	114.1
1	271513	40.1	114.1
1	272589	40.2	114.1
1	273644	40.3	114.1
1	274765	40.4	114.1
1	275887	40.5	114.1
1	276997	40.6	114.1
1	278136	40.7	114.1
1	279209	40.8	114.1
1	280272	40.9	114.1
1	281344	41	114.1
1	282457	41.1	114.1
1	283448	41.2	114.1
1	284450	41.3	114.1
1	285591	41.4	114.1
1	286842	41.5	114.1
1	288034	41.6	114.1
1	289109	41.7	114.1
1	290164	41.8	114.1
1	291245	41.9	114.1
1	292277	42	114.1
1	293290	42.1	114.1
1	294381	42.2	114.1
1	295378	42.3	114.1
1	296450	42.4	114.1
1	297547	42.5	114.1
1	298629	42.6	114.1
1	299699	42.7	114.1
1	300852	42.8	114.1
1	302034	42.9	114.1
1	303085	43	114.1
1	304186	43.1	114.1
1	305294	43.2	114.1
1	306386	43.3	114.1
1	307611	43.4	114.1
1	308687	43.5	114.1
1	309789	43.6	114.1
1	310913	43.7	114.1
1	312031	43.8	114.1
1	313164	43.9	114.1
1	314149	44	114.1
1	315247	44.1	114.1
1	316370	44.2	114.1
1	317451	44.3	114.1
1	318574	44.4	114.1
1	319612	44.5	114.1
1	320679	44.6	114.1
1	321792	44.7	114.1
1	322951	44.8	114.1
1	324127	44.9	114.1
1	325200	45	114.1
1	326342	45.1	114.1
1	327548	45.2	114.1
1	328674	45.3	114.1
1	329700	45.4	114.1
1	330740	45.5	114.1
1	331794	45.6	114.1
1	332810	45.7	114.1
1	333857	45.8	114.1
1	334853	45.9	114.1
1	335954	46	114.1
1	337016	46.1	114.1
1	338141	46.2	114.1
1	339151	46.3	114.1
1	340200	46.4	114.1
1	341286	46.5	114.1
1	342353	46.6	114.1
1	343374	46.7	114.1
1	344520	46.8	114.1
1	345673	46.9	114.1
1	346723	47	114.1
1	347890	47.1	114.1
1	348959	47.2	114.1
1	350027	47.3	114.1
1	351074	47.4	114.1
1	352120	47.5	114.1
1	353086	47.6	114.1
1	354119	47.7	114.1
1	355256	47.8	114.1
1	356230	47.9	114.1
1	357235	48	114.1
1	358264	48.1	114.1
1	359376	48.2	114.1
1	360549	48.3	114.1
1	361661	48.4	114.1
1	362760	48.5	114.1
1	363889	48.6	114.1
1	364994	48.7	114.1
1	366088	48.8	114.1
1	367309	48.9	114.1
1	368431	49	114.1
1	369610	49.1	114.1
1	370633	49.2	114.1
1	371758	49.3	114.1
1	372885	49.4	114.1
1	373940	49.5	114.1
1	374942	49.6	114.1
1	375945	49.7	114.1
1	377001	49.8	114.1
1	378131	49.9	114.1
1	379146	50	114.1
1	380154	50.1	114.1
1	381106	50.2	114.1
1	382178	50.3	114.1
1	383280	50.4	114.1
1	384309	50.5	114.1
1	385349	50.6	114.1
1	386386	50.7	114.1
1	387522	50.8	114.1
1	388590	50.9	114.1
1	389684	51	114.1
1	390789	51.1	114.1
1	391902	51.2	114.1
1	393005	51.3	114.1
1	394003	51.4	114.1
1	395076	51.5	114.1
1	396238	51.6	114.1
1	397262	51.7	114.1
1	398390	51.8	114.1
1	399469	51.9	114.1
1	400497	52	114.1
1	401543	52.1	114.1
1	402570	52.2	114.1
1	403718	52.3	114.1
1	404977	52.4	114.1
1	406199	52.5	114.1
1	407299	52.6	114.1
1	408341	52.7	114.1
1	409510	52.8	114.1
1	410628	52.9	114.1
1	411625	53	114.1
1	412670	53.1	114.1
1	413844	53.2	114.1
1	414938	53.3	114.1
1	415974	53.4	114.1
1	417127	53.5	114.1
1	418187	53.6	114.1
1	419259	53.7	114.1
1	420224	53.8	114.1
1	421319	53.9	114.1
1	422428	54	114.1
1	423548	54.1	114.1
1	424772	54.2	114.1
1	425832	54.3	114.1
1	426870	54.4	114.1
1	427918	54.5	114.1
1	429059	54.6	114.1
1	430154	54.7	114.1
1	431194	54.8	114.1
1	432246	54.9	114.1
1	433366	55	114.1
1	434454	55.1	114.1
1	435521	55.2	114.1
1	436657	55.3	114.1
1	437784	55.4	114.1
1	438909	55.5	114.1
1	440005	55.6	114.1
1	441024	55.7	114.1
1	442068	55.8	114.1
1	443132	55.9	114.1
1	444175	56	114.1
1	445240	56.1	114.1
1	446214	56.2	114.1
1	447243	56.3	114.1
1	448398	56.4	114.1
1	449635	56.5	114.1
1	450744	56.6	114.1
1	451760	56.7	114.1
1	452778	56.8	114.1
1	453938	56.9	114.1
1	455086	57	114.1
1	456243	57.1	114.1
1	457377	57.2	114.1
1	458508	57.3	114.1
1	459571	57.4	114.1
1	460608	57.5	114.1
1	461699	57.6	114.1
1	462826	57.7	114.1
1	463962	57.8	114.1
1	465040	57.9	114.1
1	466099	58	114.1
1	467225	58.1	114.1
1	468267	58.2	114.1
1	469333	58.3	114.1
1	470456	58.4	114.1
1	471498	58.5	114.1
1	472604	58.6	114.1
1	473628	58.7	114.1
1	474663	58.8	114.1
1	475846	58.9	114.1
1	476895	59	114.1
1	477903	59.1	114.1
1	479049	59.2	114.1
1	480118	59.3	114.1
1	481240	59.4	114.1
1	482305	59.5	114.1
1	483384	59.6	114.1
1	484375	59.7	114.1
1	485498	59.8	114.1
1	486655	59.9	114.1
1	487780	60	114.1
1	489054	60.1	114.1
1	490230	60.2	114.1
1	491411	60.3	114.1
1	492633	60.4	114.1
1	493737	60.5	114.1
1	494803	60.6	114.1
1	495873	60.7	114.1
1	497031	60.8	114.1
1	498257	60.9	114.1
1	499411	61	114.1
1	500438	61.1	114.1
1	501496	61.2	114.1
1	502659	61.3	114.1
1	503828	61.4	114.1
1	505015	61.5	114.1
1	506128	61.6	114.1
1	507195	61.7	114.1
1	508351	61.8	114.1
1	509518	61.9	114.1
1	510569	62	114.1
1	511657	62.1	114.1
1	512949	62.2	114.1
1	514359	62.3	114.1
1	515692	62.4	114.1
1	517028	62.5	114.1
1	518417	62.6	114.1
1	519720	62.7	114.1
1	521015	62.8	114.1
1	522299	62.9	114.1
1	523655	63	114.1
1	524958	63.1	114.1
1	526240	63.2	114.1
1	527446	63.3	114.1
1	528625	63.4	114.1
1	529898	63.5	114.1
1	531132	63.6	114.1
1	532471	63.7	114.1
1	533816	63.8	114.1
1	535232	63.9	114.1
1	536570	64	114.1
1	537923	64.1	114.1
1	539363	64.2	114.1
1	540666	64.3	114.1
1	542041	64.4	114.1
1	543241	64.5	114.1
1	544561	64.6	114.1
1	545855	64.7	114.1
1	547254	64.8	114.1
1	548684	64.9	114.1
1	549949	65	114.1
1	551323	65.1	114.1
1	552552	65.2	114.1
1	553731	65.3	114.1
1	555068	65.4	114.1
1	556446	65.5	114.1
1	557774	65.6	114.1
1	559162	65.7	114.1
1	560560	65.8	114.1
1	561951	65.9	114.1
1	563246	66	114.1
1	564520	66.1	114.1
1	565723	66.2	114.1
1	567038	66.3	114.1
1	568326	66.4	114.1
1	569597	66.5	114.1
1	570897	66.6	114.1
1	572253	66.7	114.1
1	573631	66.8	114.1
1	574889	66.9	114.1
1	576086	67	114.1
1	577323	67.1	114.1
1	578639	67.2	114.1
1	579997	67.3	114.1
1	581423	67.4	114.1
1	582844	67.5	114.1
1	584160	67.6	114.1
1	585584	67.7	114.1
1	586822	67.8	114.1
1	588111	67.9	114.1
1	589632	68	114.1
1	591082	68.1	114.1
1	592422	68.2	114.1
1	593921	68.3	114.1
1	595486	68.4	114.1
1	596966	68.5	114.1
1	598537	68.6	114.1
1	600161	68.7	114.1
1	601596	68.8	114.1
1	603073	68.9	114.1
1	604664	69	114.1
1	606168	69.1	114.1
1	607618	69.2	114.1
1	609041	69.3	114.1
1	610658	69.4	114.1
1	612132	69.5	114.1
1	613602	69.6	114.1
1	615113	69.7	114.1
1	616710	69.8	114.1
1	618357	69.9	114.1
1	619848	70	114.1
1	621290	70.1	114.1
1	622691	70.2	114.1
1	624184	70.3	114.1
1	625795	70.4	114.1
1	627431	70.5	114.1
1	628918	70.6	114.1
1	630478	70.7	114.1
1	632179	70.8	114.1
1	633809	70.9	114.1
1	635426	71	114.1
1	636933	71.1	114.1
1	638502	71.2	114.1
1	639913	71.3	114.1
1	641481	71.4	114.1
1	643122	71.5	114.1
1	644715	71.6	114.1
1	646293	71.7	114.1
1	647989	71.8	114.1
1	649495	71.9	114.1
1	650964	72	114.1
1	652424	72.1	114.1
1	653859	72.2	114.1
1	655466	72.3	114.1
1	656960	72.4	114.1
1	658573	72.5	114.1
1	660070	72.6	114.1
1	661571	72.7	114.1
1	663233	72.8	114.1
1	664763	72.9	114.1
1	666354	73	114.1
1	667879	73.1	114.1
1	669474	73.2	114.1
1	670935	73.3	114.1
1	672408	73.4	114.1
1	674047	73.5	114.1
1	675644	73.6	114.1
1	677249	73.7	114.1
1	678886	73.8	114.1
1	680431	73.9	114.1
1	681909	74	114.1
1	683457	74.1	114.1
1	684969	74.2	114.1
2	8	0.2	1.9
2	56	0.3	2.9
2	104	0.4	3.9
2	152	0.5	4.4652312381963
2	200	0.6	4.4652312381963
2	248	0.7	4.4652312381963
2	296	0.8	4.4652312381963
2	344	0.9	4.4652312381963
2	392	1	4.4652312381963
2	440	1.1	4.4652312381963
2	508	1.2	4.4652312381963
2	590	1.3	4.4652312381963
2	672	1.4	4.4652312381963
2	754	1.5	4.4652312381963
2	836	1.6	4.4652312381963
2	918	1.7	4.4652312381963
2	1000	1.8	4.4652312381963
2	1082	1.9	4.4652312381963
2	1164	2	4.4652312381963
2	1246	2.1	4.4652312381963
2	1374	2.2	4.4652312381963
2	1618	2.3	4.4652312381963
2	1905	2.4	4.4652312381963
2	2184	2.5	4.4652312381963
2	2481	2.6	4.4652312381963
2	2760	2.7	4.4652312381963
2	3058	2.8	4.4652312381963
2	3338	2.9	4.4652312381963
2	3625	3	4.4652312381963
2	3896	3.1	4.4652312381963
2	4197	3.2	4.4652312381963
2	4488	3.3	4.4652312381963
2	4780	3.4	4.4652312381963
2	5053	3.5	4.4652312381963
2	5341	3.6	4.4652312381963
2	5622	3.7	4.4652312381963
2	5923	3.8	4.4652312381963
2	6200	3.9	4.4652312381963
2	6502	4	4.4652312381963
2	6794	4.1	4.4652312381963
2	7095	4.2	4.4652312381963
2	7368	4.3	4.4652312381963
2	7669	4.4	4.4652312381963
2	7937	4.5	4.4652312381963
2	8233	4.6	4.4652312381963
2	8501	4.7	4.4652312381963
2	8783	4.8	4.4652312381963
2	9072	4.9	4.4652312381963
2	9371	5	4.4652312381963
2	9648	5.1	4.4652312381963
2	9934	5.2	4.4652312381963
2	10213	5.3	4.4652312381963
2	10502	5.4	4.4652312381963
2	10765	5.5	4.4652312381963
2	11054	5.6	4.4652312381963
2	11328	5.7	4.4652312381963
2	11621	5.8	4.4652312381963
2	11889	5.9	4.4652312381963
2	12184	6	4.4652312381963
2	12452	6.1	4.4652312381963
2	12753	6.2	4.4652312381963
2	13027	6.3	4.4652312381963
2	13313	6.4	4.4652312381963
2	13584	6.5	4.4652312381963
2	13872	6.6	4.4652312381963
2	14152	6.7	4.4652312381963
2	14452	6.8	4.4652312381963
2	14725	6.9	4.4652312381963
2	15026	7	4.4652312381963
2	15305	7.1	4.4652312381963
2	15592	7.2	4.4652312381963
2	15853	7.3	4.4652312381963
2	16150	7.4	4.4652312381963
2	16429	7.5	4.4652312381963
2	16723	7.6	4.4652312381963
2	17002	7.7	4.4652312381963
2	17294	7.8	4.4652312381963
2	17571	7.9	4.4652312381963
2	17851	8	4.4652312381963
2	18128	8.1	4.4652312381963
2	18521	8.2	4.4652312381963
2	19035	8.3	4.4652312381963
2	19538	8.4	4.4652312381963
2	20085	8.5	4.4652312381963
2	20605	8.6	4.4652312381963
2	21160	8.7	4.4652312381963
2	21717	8.8	4.4652312381963
2	22253	8.9	4.4652312381963
2	22797	9	4.4652312381963
2	23327	9.1	4.4652312381963
2	23947	9.2	4.4652312381963
2	24633	9.3	4.4652312381963
2	25288	9.4	4.4652312381963
2	26027	9.5	4.4652312381963
2	26754	9.6	4.4652312381963
2	27438	9.7	4.4652312381963
2	28093	9.8	4.4652312381963
2	28852	9.9	4.4652312381963
2	29616	10	4.4652312381963
2	30358	10.1	4.4652312381963
2	31078	10.2	4.4652312381963
2	31876	10.3	4.4652312381963
2	32614	10.4	4.4652312381963
2	33421	10.5	4.4652312381963
2	34175	10.6	4.4652312381963
2	34904	10.7	4.4652312381963
2	35674	10.8	4.4652312381963
2	36414	10.9	4.4652312381963
2	37137	11	4.4652312381963
2	37929	11.1	4.4652312381963
2	38704	11.2	4.4652312381963
2	39481	11.3	4.4652312381963
2	40233	11.4	4.4652312381963
2	40926	11.5	4.4652312381963
2	41637	11.6	4.4652312381963
2	42342	11.7	4.4652312381963
2	43051	11.8	4.4652312381963
2	43756	11.9	4.4652312381963
2	44453	12	4.4652312381963
2	45155	12.1	4.4652312381963
2	45946	12.2	4.4652312381963
2	46735	12.3	4.4652312381963
2	47624	12.4	4.4652312381963
2	48420	12.5	4.4652312381963
2	49097	12.6	4.4652312381963
2	49810	12.7	4.4652312381963
2	50512	12.8	4.4652312381963
2	51164	12.9	4.4652312381963
2	51836	13	4.4652312381963
2	52546	13.1	4.4652312381963
2	53351	13.2	4.4652312381963
2	54104	13.3	4.4652312381963
2	54836	13.4	4.4652312381963
2	55492	13.5	4.4652312381963
2	56271	13.6	4.4652312381963
2	57112	13.7	4.4652312381963
2	57860	13.8	4.4652312381963
2	58599	13.9	4.4652312381963
2	59293	14	4.4652312381963
2	60035	14.1	4.4652312381963
2	60854	14.2	4.4652312381963
2	61616	14.3	4.4652312381963
2	62408	14.4	4.4652312381963
2	63171	14.5	4.4652312381963
2	63975	14.6	4.4652312381963
2	64752	14.7	4.4652312381963
2	65561	14.8	4.4652312381963
2	66313	14.9	4.4652312381963
2	67043	15	4.4652312381963
2	67834	15.1	4.4652312381963
2	68606	15.2	4.4652312381963
2	69386	15.3	4.4652312381963
2	70098	15.4	4.4652312381963
2	70860	15.5	4.4652312381963
2	71639	15.6	4.4652312381963
2	72319	15.7	4.4652312381963
2	73069	15.8	4.4652312381963
2	73802	15.9	4.4652312381963
2	74597	16	4.4652312381963
2	75328	16.1	4.4652312381963
2	76036	16.2	4.4652312381963
2	76824	16.3	4.4652312381963
2	77597	16.4	4.4652312381963
2	78425	16.5	4.4652312381963
2	79185	16.6	4.4652312381963
2	79936	16.7	4.4652312381963
2	80672	16.8	4.4652312381963
2	81420	16.9	4.4652312381963
2	82131	17	4.4652312381963
2	82852	17.1	4.4652312381963
2	83556	17.2	4.4652312381963
2	84244	17.3	4.4652312381963
2	84988	17.4	4.4652312381963
2	85772	17.5	4.4652312381963
2	86509	17.6	4.4652312381963
2	87215	17.7	4.4652312381963
2	87908	17.8	4.4652312381963
2	88615	17.9	4.4652312381963
2	89286	18	4.4652312381963
2	90041	18.1	4.4652312381963
2	90750	18.2	4.4652312381963
2	91460	18.3	4.4652312381963
2	92165	18.4	4.4652312381963
2	92815	18.5	4.4652312381963
2	93522	18.6	4.4652312381963
2	94322	18.7	4.4652312381963
2	95097	18.8	4.4652312381963
2	95909	18.9	4.4652312381963
2	96654	19	4.4652312381963
2	97377	19.1	4.4652312381963
2	98184	19.2	4.4652312381963
2	98893	19.3	4.4652312381963
2	99581	19.4	4.4652312381963
2	100304	19.5	4.4652312381963
2	101106	19.6	4.4652312381963
2	101829	19.7	4.4652312381963
2	102530	19.8	4.4652312381963
2	103242	19.9	4.4652312381963
2	103957	20	4.4652312381963
2	104725	20.1	4.4652312381963
2	105395	20.2	4.4652312381963
2	106152	20.3	4.4652312381963
2	106846	20.4	4.4652312381963
2	107524	20.5	4.4652312381963
2	108211	20.6	4.4652312381963
2	108897	20.7	4.4652312381963
2	109659	20.8	4.4652312381963
2	110384	20.9	4.4652312381963
2	111105	21	4.4652312381963
2	111881	21.1	4.4652312381963
2	112563	21.2	4.4652312381963
2	113264	21.3	4.4652312381963
2	113979	21.4	4.4652312381963
2	114690	21.5	4.4652312381963
2	115494	21.6	4.4652312381963
2	116275	21.7	4.4652312381963
2	116969	21.8	4.4652312381963
2	117717	21.9	4.4652312381963
2	118526	22	4.4652312381963
2	119286	22.1	4.4652312381963
2	120070	22.2	4.4652312381963
2	120827	22.3	4.4652312381963
2	121516	22.4	4.4652312381963
2	122228	22.5	4.4652312381963
2	122948	22.6	4.4652312381963
2	123662	22.7	4.4652312381963
2	124429	22.8	4.4652312381963
2	125148	22.9	4.4652312381963
2	125872	23	4.4652312381963
2	126639	23.1	4.4652312381963
2	127320	23.2	4.4652312381963
2	128036	23.3	4.4652312381963
2	128750	23.4	4.4652312381963
2	129551	23.5	4.4652312381963
2	130306	23.6	4.4652312381963
2	131097	23.7	4.4652312381963
2	131787	23.8	4.4652312381963
2	132639	23.9	4.4652312381963
2	133388	24	4.4652312381963
2	134077	24.1	4.4652312381963
2	134759	24.2	4.4652312381963
2	135518	24.3	4.4652312381963
2	136209	24.4	4.4652312381963
2	136916	24.5	4.4652312381963
2	137630	24.6	4.4652312381963
2	138338	24.7	4.4652312381963
2	139000	24.8	4.4652312381963
2	139771	24.9	4.4652312381963
2	140573	25	4.4652312381963
2	141358	25.1	4.4652312381963
2	142145	25.2	4.4652312381963
2	142899	25.3	4.4652312381963
2	143670	25.4	4.4652312381963
2	144343	25.5	4.4652312381963
2	145081	25.6	4.4652312381963
2	145781	25.7	4.4652312381963
2	146508	25.8	4.4652312381963
2	147238	25.9	4.4652312381963
2	148029	26	4.4652312381963
2	148760	26.1	4.4652312381963
2	149422	26.2	4.4652312381963
2	150212	26.3	4.4652312381963
2	150983	26.4	4.4652312381963
2	151780	26.5	4.4652312381963
2	152471	26.6	4.4652312381963
2	153284	26.7	4.4652312381963
2	154037	26.8	4.4652312381963
2	154830	26.9	4.4652312381963
2	155613	27	4.4652312381963
2	156410	27.1	4.4652312381963
2	157183	27.2	4.4652312381963
2	158003	27.3	4.4652312381963
2	158684	27.4	4.4652312381963
2	159373	27.5	4.4652312381963
2	160080	27.6	4.4652312381963
2	160790	27.7	4.4652312381963
2	161484	27.8	4.4652312381963
2	162180	27.9	4.4652312381963
2	162918	28	4.4652312381963
2	163711	28.1	4.4652312381963
2	164389	28.2	4.4652312381963
2	165106	28.3	4.4652312381963
2	165827	28.4	4.4652312381963
2	166640	28.5	4.4652312381963
2	167345	28.6	4.4652312381963
2	168066	28.7	4.4652312381963
2	168878	28.8	4.4652312381963
2	169639	28.9	4.4652312381963
2	170345	29	4.4652312381963
2	171062	29.1	4.4652312381963
2	171858	29.2	4.4652312381963
2	172621	29.3	4.4652312381963
2	173323	29.4	4.4652312381963
2	174037	29.5	4.4652312381963
2	174866	29.6	4.4652312381963
2	175629	29.7	4.4652312381963
2	176458	29.8	4.4652312381963
2	177223	29.9	4.4652312381963
2	178006	30	4.4652312381963
2	178643	30.1	4.4652312381963
2	179330	30.2	4.4652312381963
2	180140	30.3	4.4652312381963
2	180932	30.4	4.4652312381963
2	181654	30.5	4.4652312381963
2	182353	30.6	4.4652312381963
2	183006	30.7	4.4652312381963
2	183708	30.8	4.4652312381963
2	184409	30.9	4.4652312381963
2	185096	31	4.4652312381963
2	185811	31.1	4.4652312381963
2	186619	31.2	4.4652312381963
2	187356	31.3	4.4652312381963
2	188022	31.4	4.4652312381963
2	188716	31.5	4.4652312381963
2	189438	31.6	4.4652312381963
2	190226	31.7	4.4652312381963
2	191000	31.8	4.4652312381963
2	191862	31.9	4.4652312381963
2	192646	32	4.4652312381963
2	193524	32.1	4.4652312381963
2	194391	32.2	4.4652312381963
2	195203	32.3	4.4652312381963
2	196040	32.4	4.4652312381963
2	196989	32.5	4.4652312381963
2	197974	32.6	4.4652312381963
2	198950	32.7	4.4652312381963
2	199897	32.8	4.4652312381963
2	200796	32.9	4.4652312381963
2	201612	33	4.4652312381963
2	202474	33.1	4.4652312381963
2	203413	33.2	4.4652312381963
2	204441	33.3	4.4652312381963
2	205500	33.4	4.4652312381963
2	206436	33.5	4.4652312381963
2	207320	33.6	4.4652312381963
2	208165	33.7	4.4652312381963
2	209105	33.8	4.4652312381963
2	210101	33.9	4.4652312381963
2	211074	34	4.4652312381963
2	211982	34.1	4.4652312381963
2	212844	34.2	4.4652312381963
2	213714	34.3	4.4652312381963
2	214669	34.4	4.4652312381963
2	215681	34.5	4.4652312381963
2	216693	34.6	4.4652312381963
2	217705	34.7	4.4652312381963
2	218677	34.8	4.4652312381963
2	219647	34.9	4.4652312381963
2	220502	35	4.4652312381963
2	221360	35.1	4.4652312381963
2	222286	35.2	4.4652312381963
2	223247	35.3	4.4652312381963
2	224219	35.4	4.4652312381963
2	225168	35.5	4.4652312381963
2	226151	35.6	4.4652312381963
2	227008	35.7	4.4652312381963
2	227901	35.8	4.4652312381963
2	228799	35.9	4.4652312381963
2	229746	36	4.4652312381963
2	230708	36.1	4.4652312381963
2	231689	36.2	4.4652312381963
2	232580	36.3	4.4652312381963
2	233601	36.4	4.4652312381963
2	234516	36.5	4.4652312381963
2	235440	36.6	4.4652312381963
2	236373	36.7	4.4652312381963
2	237365	36.8	4.4652312381963
2	238302	36.9	4.4652312381963
2	239224	37	4.4652312381963
2	240124	37.1	4.4652312381963
2	241136	37.2	4.4652312381963
2	242065	37.3	4.4652312381963
2	242958	37.4	4.4652312381963
2	243873	37.5	4.4652312381963
2	244804	37.6	4.4652312381963
2	245696	37.7	4.4652312381963
2	246622	37.8	4.4652312381963
2	247576	37.9	4.4652312381963
2	248432	38	4.4652312381963
2	249406	38.1	4.4652312381963
2	250539	38.2	4.4652312381963
2	251678	38.3	4.4652312381963
2	252921	38.4	4.4652312381963
2	254040	38.5	4.4652312381963
2	255151	38.6	4.4652312381963
2	256281	38.7	4.4652312381963
2	257316	38.8	4.4652312381963
2	258337	38.9	4.4652312381963
2	259423	39	4.4652312381963
2	260460	39.1	4.4652312381963
2	261516	39.2	4.4652312381963
2	262639	39.3	4.4652312381963
2	263698	39.4	4.4652312381963
2	264779	39.5	4.4652312381963
2	265862	39.6	4.4652312381963
2	266955	39.7	4.4652312381963
2	268200	39.8	4.4652312381963
2	269313	39.9	4.4652312381963
2	270447	40	4.4652312381963
2	271513	40.1	4.4652312381963
2	272589	40.2	4.4652312381963
2	273644	40.3	4.4652312381963
2	274765	40.4	4.4652312381963
2	275887	40.5	4.4652312381963
2	276997	40.6	4.4652312381963
2	278136	40.7	4.4652312381963
2	279209	40.8	4.4652312381963
2	280272	40.9	4.4652312381963
2	281344	41	4.4652312381963
2	282457	41.1	4.4652312381963
2	283448	41.2	4.4652312381963
2	284450	41.3	4.4652312381963
2	285591	41.4	4.4652312381963
2	286842	41.5	4.4652312381963
2	288034	41.6	4.4652312381963
2	289109	41.7	4.4652312381963
2	290164	41.8	4.4652312381963
2	291245	41.9	4.4652312381963
2	292277	42	4.4652312381963
2	293290	42.1	4.4652312381963
2	294381	42.2	4.4652312381963
2	295378	42.3	4.4652312381963
2	296450	42.4	4.4652312381963
2	297547	42.5	4.4652312381963
2	298629	42.6	4.4652312381963
2	299699	42.7	4.4652312381963
2	300852	42.8	4.4652312381963
2	302034	42.9	4.4652312381963
2	303085	43	4.4652312381963
2	304186	43.1	4.4652312381963
2	305294	43.2	4.4652312381963
2	306386	43.3	4.4652312381963
2	307611	43.4	4.4652312381963
2	308687	43.5	4.4652312381963
2	309789	43.6	4.4652312381963
2	310913	43.7	4.4652312381963
2	312031	43.8	4.4652312381963
2	313164	43.9	4.4652312381963
2	314149	44	4.4652312381963
2	315247	44.1	4.4652312381963
2	316370	44.2	4.4652312381963
2	317451	44.3	4.4652312381963
2	318574	44.4	4.4652312381963
2	319612	44.5	4.4652312381963
2	320679	44.6	4.4652312381963
2	321792	44.7	4.4652312381963
2	322951	44.8	4.4652312381963
2	324127	44.9	4.4652312381963
2	325200	45	4.4652312381963
2	326342	45.1	4.4652312381963
2	327548	45.2	4.4652312381963
2	328674	45.3	4.4652312381963
2	329700	45.4	4.4652312381963
2	330740	45.5	4.4652312381963
2	331794	45.6	4.4652312381963
2	332810	45.7	4.4652312381963
2	333857	45.8	4.4652312381963
2	334853	45.9	4.4652312381963
2	335954	46	4.4652312381963
2	337016	46.1	4.4652312381963
2	338141	46.2	4.4652312381963
2	339151	46.3	4.4652312381963
2	340200	46.4	4.4652312381963
2	341286	46.5	4.4652312381963
2	342353	46.6	4.4652312381963
2	343374	46.7	4.4652312381963
2	344520	46.8	4.4652312381963
2	345673	46.9	4.4652312381963
2	346723	47	4.4652312381963
2	347890	47.1	4.4652312381963
2	348959	47.2	4.4652312381963
2	350027	47.3	4.4652312381963
2	351074	47.4	4.4652312381963
2	352120	47.5	4.4652312381963
2	353086	47.6	4.4652312381963
2	354119	47.7	4.4652312381963
2	355256	47.8	4.4652312381963
2	356230	47.9	4.4652312381963
2	357235	48	4.4652312381963
2	358264	48.1	4.4652312381963
2	359376	48.2	4.4652312381963
2	360549	48.3	4.4652312381963
2	361661	48.4	4.4652312381963
2	362760	48.5	4.4652312381963
2	363889	48.6	4.4652312381963
2	364994	48.7	4.4652312381963
2	366088	48.8	4.4652312381963
2	367309	48.9	4.4652312381963
2	368431	49	4.4652312381963
2	369610	49.1	4.4652312381963
2	370633	49.2	4.4652312381963
2	371758	49.3	4.4652312381963
2	372885	49.4	4.4652312381963
2	373940	49.5	4.4652312381963
2	374942	49.6	4.4652312381963
2	375945	49.7	4.4652312381963
2	377001	49.8	4.4652312381963
2	378131	49.9	4.4652312381963
2	379146	50	4.4652312381963
2	380154	50.1	4.4652312381963
2	381106	50.2	4.4652312381963
2	382178	50.3	4.4652312381963
2	383280	50.4	4.4652312381963
2	384309	50.5	4.4652312381963
2	385349	50.6	4.4652312381963
2	386386	50.7	4.4652312381963
2	387522	50.8	4.4652312381963
2	388590	50.9	4.4652312381963
2	389684	51	4.4652312381963
2	390789	51.1	4.4652312381963
2	391902	51.2	4.4652312381963
2	393005	51.3	4.4652312381963
2	394003	51.4	4.4652312381963
2	395076	51.5	4.4652312381963
2	396238	51.6	4.4652312381963
2	397262	51.7	4.4652312381963
2	398390	51.8	4.4652312381963
2	399469	51.9	4.4652312381963
2	400497	52	4.4652312381963
2	401543	52.1	4.4652312381963
2	402570	52.2	4.4652312381963
2	403718	52.3	4.4652312381963
2	404977	52.4	4.4652312381963
2	406199	52.5	4.4652312381963
2	407299	52.6	4.4652312381963
2	408341	52.7	4.4652312381963
2	409510	52.8	4.4652312381963
2	410628	52.9	4.4652312381963
2	411625	53	4.4652312381963
2	412670	53.1	4.4652312381963
2	413844	53.2	4.4652312381963
2	414938	53.3	4.4652312381963
2	415974	53.4	4.4652312381963
2	417127	53.5	4.4652312381963
2	418187	53.6	4.4652312381963
2	419259	53.7	4.4652312381963
2	420224	53.8	4.4652312381963
2	421319	53.9	4.4652312381963
2	422428	54	4.4652312381963
2	423548	54.1	4.4652312381963
2	424772	54.2	4.4652312381963
2	425832	54.3	4.4652312381963
2	426870	54.4	4.4652312381963
2	427918	54.5	4.4652312381963
2	429059	54.6	4.4652312381963
2	430154	54.7	4.4652312381963
2	431194	54.8	4.4652312381963
2	432246	54.9	4.4652312381963
2	433366	55	4.4652312381963
2	434454	55.1	4.4652312381963
2	435521	55.2	4.4652312381963
2	436657	55.3	4.4652312381963
2	437784	55.4	4.4652312381963
2	438909	55.5	4.4652312381963
2	440005	55.6	4.4652312381963
2	441024	55.7	4.4652312381963
2	442068	55.8	4.4652312381963
2	443132	55.9	4.4652312381963
2	444175	56	4.4652312381963
2	445240	56.1	4.4652312381963
2	446214	56.2	4.4652312381963
2	447243	56.3	4.4652312381963
2	448398	56.4	4.4652312381963
2	449635	56.5	4.4652312381963
2	450744	56.6	4.4652312381963
2	451760	56.7	4.4652312381963
2	452778	56.8	4.4652312381963
2	453938	56.9	4.4652312381963
2	455086	57	4.4652312381963
2	456243	57.1	4.4652312381963
2	457377	57.2	4.4652312381963
2	458508	57.3	4.4652312381963
2	459571	57.4	4.4652312381963
2	460608	57.5	4.4652312381963
2	461699	57.6	4.4652312381963
2	462826	57.7	4.4652312381963
2	463962	57.8	4.4652312381963
2	465040	57.9	4.4652312381963
2	466099	58	4.4652312381963
2	467225	58.1	4.4652312381963
2	468267	58.2	4.4652312381963
2	469333	58.3	4.4652312381963
2	470456	58.4	4.4652312381963
2	471498	58.5	4.4652312381963
2	472604	58.6	4.4652312381963
2	473628	58.7	4.4652312381963
2	474663	58.8	4.4652312381963
2	475846	58.9	4.4652312381963
2	476895	59	4.4652312381963
2	477903	59.1	4.4652312381963
2	479049	59.2	4.4652312381963
2	480118	59.3	4.4652312381963
2	481240	59.4	4.4652312381963
2	482305	59.5	4.4652312381963
2	483384	59.6	4.4652312381963
2	484375	59.7	4.4652312381963
2	485498	59.8	4.4652312381963
2	486655	59.9	4.4652312381963
2	487780	60	4.4652312381963
2	489054	60.1	4.4652312381963
2	490230	60.2	4.4652312381963
2	491411	60.3	4.4652312381963
2	492633	60.4	4.4652312381963
2	493737	60.5	4.4652312381963
2	494803	60.6	4.4652312381963
2	495873	60.7	4.4652312381963
2	497031	60.8	4.4652312381963
2	498257	60.9	4.4652312381963
2	499411	61	4.4652312381963
2	500438	61.1	4.4652312381963
2	501496	61.2	4.4652312381963
2	502659	61.3	4.4652312381963
2	503828	61.4	4.4652312381963
2	505015	61.5	4.4652312381963
2	506128	61.6	4.4652312381963
2	507195	61.7	4.4652312381963
2	508351	61.8	4.4652312381963
2	509518	61.9	4.4652312381963
2	510569	62	4.4652312381963
2	511657	62.1	4.4652312381963
2	512949	62.2	4.4652312381963
2	514359	62.3	4.4652312381963
2	515692	62.4	4.4652312381963
2	517028	62.5	4.4652312381963
2	518417	62.6	4.4652312381963
2	519720	62.7	4.4652312381963
2	521015	62.8	4.4652312381963
2	522299	62.9	4.4652312381963
2	523655	63	4.4652312381963
2	524958	63.1	4.4652312381963
2	526240	63.2	4.4652312381963
2	527446	63.3	4.4652312381963
2	528625	63.4	4.4652312381963
2	529898	63.5	4.4652312381963
2	531132	63.6	4.4652312381963
2	532471	63.7	4.4652312381963
2	533816	63.8	4.4652312381963
2	535232	63.9	4.4652312381963
2	536570	64	4.4652312381963
2	537923	64.1	4.4652312381963
2	539363	64.2	4.4652312381963
2	540666	64.3	4.4652312381963
2	542041	64.4	4.4652312381963
2	543241	64.5	4.4652312381963
2	544561	64.6	4.4652312381963
2	545855	64.7	4.4652312381963
2	547254	64.8	4.4652312381963
2	548684	64.9	4.4652312381963
2	549949	65	4.4652312381963
2	551323	65.1	4.4652312381963
2	552552	65.2	4.4652312381963
2	553731	65.3	4.4652312381963
2	555068	65.4	4.4652312381963
2	556446	65.5	4.4652312381963
2	557774	65.6	4.4652312381963
2	559162	65.7	4.4652312381963
2	560560	65.8	4.4652312381963
2	561951	65.9	4.4652312381963
2	563246	66	4.4652312381963
2	564520	66.1	4.4652312381963
2	565723	66.2	4.4652312381963
2	567038	66.3	4.4652312381963
2	568326	66.4	4.4652312381963
2	569597	66.5	4.4652312381963
2	570897	66.6	4.4652312381963
2	572253	66.7	4.4652312381963
2	573631	66.8	4.4652312381963
2	574889	66.9	4.4652312381963
2	576086	67	4.4652312381963
2	577323	67.1	4.4652312381963
2	578639	67.2	4.4652312381963
2	579997	67.3	4.4652312381963
2	581423	67.4	4.4652312381963
2	582844	67.5	4.4652312381963
2	584160	67.6	4.4652312381963
2	585584	67.7	4.4652312381963
2	586822	67.8	4.4652312381963
2	588111	67.9	4.4652312381963
2	589632	68	4.4652312381963
2	591082	68.1	4.4652312381963
2	592422	68.2	4.4652312381963
2	593921	68.3	4.4652312381963
2	595486	68.4	4.4652312381963
2	596966	68.5	4.4652312381963
2	598537	68.6	4.4652312381963
2	600161	68.7	4.4652312381963
2	601596	68.8	4.4652312381963
2	603073	68.9	4.4652312381963
2	604664	69	4.4652312381963
2	606168	69.1	4.4652312381963
2	607618	69.2	4.4652312381963
2	609041	69.3	4.4652312381963
2	610658	69.4	4.4652312381963
2	612132	69.5	4.4652312381963
2	613602	69.6	4.4652312381963
2	615113	69.7	4.4652312381963
2	616710	69.8	4.4652312381963
2	618357	69.9	4.4652312381963
2	619848	70	4.4652312381963
2	621290	70.1	4.4652312381963
2	622691	70.2	4.4652312381963
2	624184	70.3	4.4652312381963
2	625795	70.4	4.4652312381963
2	627431	70.5	4.4652312381963
2	628918	70.6	4.4652312381963
2	630478	70.7	4.4652312381963
2	632179	70.8	4.4652312381963
2	633809	70.9	4.4652312381963
2	635426	71	4.4652312381963
2	636933	71.1	4.4652312381963
2	638502	71.2	4.4652312381963
2	639913	71.3	4.4652312381963
2	641481	71.4	4.4652312381963
2	643122	71.5	4.4652312381963
2	644715	71.6	4.4652312381963
2	646293	71.7	4.4652312381963
2	647989	71.8	4.4652312381963
2	649495	71.9	4.4652312381963
2	650964	72	4.4652312381963
2	652424	72.1	4.4652312381963
2	653859	72.2	4.4652312381963
2	655466	72.3	4.4652312381963
2	656960	72.4	4.4652312381963
2	658573	72.5	4.4652312381963
2	660070	72.6	4.4652312381963
2	661571	72.7	4.4652312381963
2	663233	72.8	4.4652312381963
2	664763	72.9	4.4652312381963
2	666354	73	4.4652312381963
2	667879	73.1	4.4652312381963
2	669474	73.2	4.4652312381963
2	670935	73.3	4.4652312381963
2	672408	73.4	4.4652312381963
2	674047	73.5	4.4652312381963
2	675644	73.6	4.4652312381963
2	677249	73.7	4.4652312381963
2	678886	73.8	4.4652312381963
2	680431	73.9	4.4652312381963
2	681909	74	4.4652312381963
2	683457	74.1	4.4652312381963
2	684969	74.2	4.4652312381963
3	56	0.3	10
3	104	0.4	10
3	152	0.5	5.6523123819625
3	200	0.6	0
3	248	0.7	0
3	296	0.8	0
3	344	0.9	0
3	392	1	0
3	440	1.1	0
3	508	1.2	0
3	590	1.3	0
3	672	1.4	0
3	754	1.5	0
3	836	1.6	0
3	918	1.7	0
3	1000	1.8	0
3	1082	1.9	0
3	1164	2	0
3	1246	2.1	0
3	1374	2.2	0
3	1618	2.3	0
3	1905	2.4	0
3	2184	2.5	0
3	2481	2.6	0
3	2760	2.7	0
3	3058	2.8	0
3	3338	2.9	0
3	3625	3	0
3	3896	3.1	0
3	4197	3.2	0
3	4488	3.3	0
3	4780	3.4	0
3	5053	3.5	0
3	5341	3.6	0
3	5622	3.7	0
3	5923	3.8	0
3	6200	3.9	0
3	6502	4	0
3	6794	4.1	0
3	7095	4.2	0
3	7368	4.3	0
3	7669	4.4	0
3	7937	4.5	0
3	8233	4.6	0
3	8501	4.7	0
3	8783	4.8	0
3	9072	4.9	0
3	9371	5	0
3	9648	5.1	0
3	9934	5.2	0
3	10213	5.3	0
3	10502	5.4	0
3	10765	5.5	0
3	11054	5.6	0
3	11328	5.7	0
3	11621	5.8	0
3	11889	5.9	0
3	12184	6	0
3	12452	6.1	0
3	12753	6.2	0
3	13027	6.3	0
3	13313	6.4	0
3	13584	6.5	0
3	13872	6.6	0
3	14152	6.7	0
3	14452	6.8	0
3	14725	6.9	0
3	15026	7	0
3	15305	7.1	0
3	15592	7.2	0
3	15853	7.3	0
3	16150	7.4	0
3	16429	7.5	0
3	16723	7.6	0
3	17002	7.7	0
3	17294	7.8	0
3	17571	7.9	0
3	17851	8	0
3	18128	8.1	0
3	18521	8.2	0
3	19035	8.3	0
3	19538	8.4	0
3	20085	8.5	0
3	20605	8.6	0
3	21160	8.7	0
3	21717	8.8	0
3	22253	8.9	0
3	22797	9	0
3	23327	9.1	0
3	23947	9.2	0
3	24633	9.3	0
3	25288	9.4	0
3	26027	9.5	0
3	26754	9.6	0
3	27438	9.7	0
3	28093	9.8	0
3	28852	9.9	0
3	29616	10	0
3	30358	10.1	0
3	31078	10.2	0
3	31876	10.3	0
3	32614	10.4	0
3	33421	10.5	0
3	34175	10.6	0
3	34904	10.7	0
3	35674	10.8	0
3	36414	10.9	0
3	37137	11	0
3	37929	11.1	0
3	38704	11.2	0
3	39481	11.3	0
3	40233	11.4	0
3	40926	11.5	0
3	41637	11.6	0
3	42342	11.7	0
3	43051	11.8	0
3	43756	11.9	0
3	44453	12	0
3	45155	12.1	0
3	45946	12.2	0
3	46735	12.3	0
3	47624	12.4	0
3	48420	12.5	0
3	49097	12.6	0
3	49810	12.7	0
3	50512	12.8	0
3	51164	12.9	0
3	51836	13	0
3	52546	13.1	0
3	53351	13.2	0
3	54104	13.3	0
3	54836	13.4	0
3	55492	13.5	0
3	56271	13.6	0
3	57112	13.7	0
3	57860	13.8	0
3	58599	13.9	0
3	59293	14	0
3	60035	14.1	0
3	60854	14.2	0
3	61616	14.3	0
3	62408	14.4	0
3	63171	14.5	0
3	63975	14.6	0
3	64752	14.7	0
3	65561	14.8	0
3	66313	14.9	0
3	67043	15	0
3	67834	15.1	0
3	68606	15.2	0
3	69386	15.3	0
3	70098	15.4	0
3	70860	15.5	0
3	71639	15.6	0
3	72319	15.7	0
3	73069	15.8	0
3	73802	15.9	0
3	74597	16	0
3	75328	16.1	0
3	76036	16.2	0
3	76824	16.3	0
3	77597	16.4	0
3	78425	16.5	0
3	79185	16.6	0
3	79936	16.7	0
3	80672	16.8	0
3	81420	16.9	0
3	82131	17	0
3	82852	17.1	0
3	83556	17.2	0
3	84244	17.3	0
3	84988	17.4	0
3	85772	17.5	0
3	86509	17.6	0
3	87215	17.7	0
3	87908	17.8	0
3	88615	17.9	0
3	89286	18	0
3	90041	18.1	0
3	90750	18.2	0
3	91460	18.3	0
3	92165	18.4	0
3	92815	18.5	0
3	93522	18.6	0
3	94322	18.7	0
3	95097	18.8	0
3	95909	18.9	0
3	96654	19	0
3	97377	19.1	0
3	98184	19.2	0
3	98893	19.3	0
3	99581	19.4	0
3	100304	19.5	0
3	101106	19.6	0
3	101829	19.7	0
3	102530	19.8	0
3	103242	19.9	0
3	103957	20	0
3	104725	20.1	0
3	105395	20.2	0
3	106152	20.3	0
3	106846	20.4	0
3	107524	20.5	0
3	108211	20.6	0
3	108897	20.7	0
3	109659	20.8	0
3	110384	20.9	0
3	111105	21	0
3	111881	21.1	0
3	112563	21.2	0
3	113264	21.3	0
3	113979	21.4	0
3	114690	21.5	0
3	115494	21.6	0
3	116275	21.7	0
3	116969	21.8	0
3	117717	21.9	0
3	118526	22	0
3	119286	22.1	0
3	120070	22.2	0
3	120827	22.3	0
3	121516	22.4	0
3	122228	22.5	0
3	122948	22.6	0
3	123662	22.7	0
3	124429	22.8	0
3	125148	22.9	0
3	125872	23	0
3	126639	23.1	0
3	127320	23.2	0
3	128036	23.3	0
3	128750	23.4	0
3	129551	23.5	0
3	130306	23.6	0
3	131097	23.7	0
3	131787	23.8	0
3	132639	23.9	0
3	133388	24	0
3	134077	24.1	0
3	134759	24.2	0
3	135518	24.3	0
3	136209	24.4	0
3	136916	24.5	0
3	137630	24.6	0
3	138338	24.7	0
3	139000	24.8	0
3	139771	24.9	0
3	140573	25	0
3	141358	25.1	0
3	142145	25.2	0
3	142899	25.3	0
3	143670	25.4	0
3	144343	25.5	0
3	145081	25.6	0
3	145781	25.7	0
3	146508	25.8	0
3	147238	25.9	0
3	148029	26	0
3	148760	26.1	0
3	149422	26.2	0
3	150212	26.3	0
3	150983	26.4	0
3	151780	26.5	0
3	152471	26.6	0
3	153284	26.7	0
3	154037	26.8	0
3	154830	26.9	0
3	155613	27	0
3	156410	27.1	0
3	157183	27.2	0
3	158003	27.3	0
3	158684	27.4	0
3	159373	27.5	0
3	160080	27.6	0
3	160790	27.7	0
3	161484	27.8	0
3	162180	27.9	0
3	162918	28	0
3	163711	28.1	0
3	164389	28.2	0
3	165106	28.3	0
3	165827	28.4	0
3	166640	28.5	0
3	167345	28.6	0
3	168066	28.7	0
3	168878	28.8	0
3	169639	28.9	0
3	170345	29	0
3	171062	29.1	0
3	171858	29.2	0
3	172621	29.3	0
3	173323	29.4	0
3	174037	29.5	0
3	174866	29.6	0
3	175629	29.7	0
3	176458	29.8	0
3	177223	29.9	0
3	178006	30	0
3	178643	30.1	0
3	179330	30.2	0
3	180140	30.3	0
3	180932	30.4	0
3	181654	30.5	0
3	182353	30.6	0
3	183006	30.7	0
3	183708	30.8	0
3	184409	30.9	0
3	185096	31	0
3	185811	31.1	0
3	186619	31.2	0
3	187356	31.3	0
3	188022	31.4	0
3	188716	31.5	0
3	189438	31.6	0
3	190226	31.7	0
3	191000	31.8	0
3	191862	31.9	0
3	192646	32	0
3	193524	32.1	0
3	194391	32.2	0
3	195203	32.3	0
3	196040	32.4	0
3	196989	32.5	0
3	197974	32.6	0
3	198950	32.7	0
3	199897	32.8	0
3	200796	32.9	0
3	201612	33	0
3	202474	33.1	0
3	203413	33.2	0
3	204441	33.3	0
3	205500	33.4	0
3	206436	33.5	0
3	207320	33.6	0
3	208165	33.7	0
3	209105	33.8	0
3	210101	33.9	0
3	211074	34	0
3	211982	34.1	0
3	212844	34.2	0
3	213714	34.3	0
3	214669	34.4	0
3	215681	34.5	0
3	216693	34.6	0
3	217705	34.7	0
3	218677	34.8	0
3	219647	34.9	0
3	220502	35	0
3	221360	35.1	0
3	222286	35.2	0
3	223247	35.3	0
3	224219	35.4	0
3	225168	35.5	0
3	226151	35.6	0
3	227008	35.7	0
3	227901	35.8	0
3	228799	35.9	0
3	229746	36	0
3	230708	36.1	0
3	231689	36.2	0
3	232580	36.3	0
3	233601	36.4	0
3	234516	36.5	0
3	235440	36.6	0
3	236373	36.7	0
3	237365	36.8	0
3	238302	36.9	0
3	239224	37	0
3	240124	37.1	0
3	241136	37.2	0
3	242065	37.3	0
3	242958	37.4	0
3	243873	37.5	0
3	244804	37.6	0
3	245696	37.7	0
3	246622	37.8	0
3	247576	37.9	0
3	248432	38	0
3	249406	38.1	0
3	250539	38.2	0
3	251678	38.3	0
3	252921	38.4	0
3	254040	38.5	0
3	255151	38.6	0
3	256281	38.7	0
3	257316	38.8	0
3	258337	38.9	0
3	259423	39	0
3	260460	39.1	0
3	261516	39.2	0
3	262639	39.3	0
3	263698	39.4	0
3	264779	39.5	0
3	265862	39.6	0
3	266955	39.7	0
3	268200	39.8	0
3	269313	39.9	0
3	270447	40	0
3	271513	40.1	0
3	272589	40.2	0
3	273644	40.3	0
3	274765	40.4	0
3	275887	40.5	0
3	276997	40.6	0
3	278136	40.7	0
3	279209	40.8	0
3	280272	40.9	0
3	281344	41	0
3	282457	41.1	0
3	283448	41.2	0
3	284450	41.3	0
3	285591	41.4	0
3	286842	41.5	0
3	288034	41.6	0
3	289109	41.7	0
3	290164	41.8	0
3	291245	41.9	0
3	292277	42	0
3	293290	42.1	0
3	294381	42.2	0
3	295378	42.3	0
3	296450	42.4	0
3	297547	42.5	0
3	298629	42.6	0
3	299699	42.7	0
3	300852	42.8	0
3	302034	42.9	0
3	303085	43	0
3	304186	43.1	0
3	305294	43.2	0
3	306386	43.3	0
3	307611	43.4	0
3	308687	43.5	0
3	309789	43.6	0
3	310913	43.7	0
3	312031	43.8	0
3	313164	43.9	0
3	314149	44	0
3	315247	44.1	0
3	316370	44.2	0
3	317451	44.3	0
3	318574	44.4	0
3	319612	44.5	0
3	320679	44.6	0
3	321792	44.7	0
3	322951	44.8	0
3	324127	44.9	0
3	325200	45	0
3	326342	45.1	0
3	327548	45.2	0
3	328674	45.3	0
3	329700	45.4	0
3	330740	45.5	0
3	331794	45.6	0
3	332810	45.7	0
3	333857	45.8	0
3	334853	45.9	0
3	335954	46	0
3	337016	46.1	0
3	338141	46.2	0
3	339151	46.3	0
3	340200	46.4	0
3	341286	46.5	0
3	342353	46.6	0
3	343374	46.7	0
3	344520	46.8	0
3	345673	46.9	0
3	346723	47	0
3	347890	47.1	0
3	348959	47.2	0
3	350027	47.3	0
3	351074	47.4	0
3	352120	47.5	0
3	353086	47.6	0
3	354119	47.7	0
3	355256	47.8	0
3	356230	47.9	0
3	357235	48	0
3	358264	48.1	0
3	359376	48.2	0
3	360549	48.3	0
3	361661	48.4	0
3	362760	48.5	0
3	363889	48.6	0
3	364994	48.7	0
3	366088	48.8	0
3	367309	48.9	0
3	368431	49	0
3	369610	49.1	0
3	370633	49.2	0
3	371758	49.3	0
3	372885	49.4	0
3	373940	49.5	0
3	374942	49.6	0
3	375945	49.7	0
3	377001	49.8	0
3	378131	49.9	0
3	379146	50	0
3	380154	50.1	0
3	381106	50.2	0
3	382178	50.3	0
3	383280	50.4	0
3	384309	50.5	0
3	385349	50.6	0
3	386386	50.7	0
3	387522	50.8	0
3	388590	50.9	0
3	389684	51	0
3	390789	51.1	0
3	391902	51.2	0
3	393005	51.3	0
3	394003	51.4	0
3	395076	51.5	0
3	396238	51.6	0
3	397262	51.7	0
3	398390	51.8	0
3	399469	51.9	0
3	400497	52	0
3	401543	52.1	0
3	402570	52.2	0
3	403718	52.3	0
3	404977	52.4	0
3	406199	52.5	0
3	407299	52.6	0
3	408341	52.7	0
3	409510	52.8	0
3	410628	52.9	0
3	411625	53	0
3	412670	53.1	0
3	413844	53.2	0
3	414938	53.3	0
3	415974	53.4	0
3	417127	53.5	0
3	418187	53.6	0
3	419259	53.7	0
3	420224	53.8	0
3	421319	53.9	0
3	422428	54	0
3	423548	54.1	0
3	424772	54.2	0
3	425832	54.3	0
3	426870	54.4	0
3	427918	54.5	0
3	429059	54.6	0
3	430154	54.7	0
3	431194	54.8	0
3	432246	54.9	0
3	433366	55	0
3	434454	55.1	0
3	435521	55.2	0
3	436657	55.3	0
3	437784	55.4	0
3	438909	55.5	0
3	440005	55.6	0
3	441024	55.7	0
3	442068	55.8	0
3	443132	55.9	0
3	444175	56	0
3	445240	56.1	0
3	446214	56.2	0
3	447243	56.3	0
3	448398	56.4	0
3	449635	56.5	0
3	450744	56.6	0
3	451760	56.7	0
3	452778	56.8	0
3	453938	56.9	0
3	455086	57	0
3	456243	57.1	0
3	457377	57.2	0
3	458508	57.3	0
3	459571	57.4	0
3	460608	57.5	0
3	461699	57.6	0
3	462826	57.7	0
3	463962	57.8	0
3	465040	57.9	0
3	466099	58	0
3	467225	58.1	0
3	468267	58.2	0
3	469333	58.3	0
3	470456	58.4	0
3	471498	58.5	0
3	472604	58.6	0
3	473628	58.7	0
3	474663	58.8	0
3	475846	58.9	0
3	476895	59	0
3	477903	59.1	0
3	479049	59.2	0
3	480118	59.3	0
3	481240	59.4	0
3	482305	59.5	0
3	483384	59.6	0
3	484375	59.7	0
3	485498	59.8	0
3	486655	59.9	0
3	487780	60	0
3	489054	60.1	0
3	490230	60.2	0
3	491411	60.3	0
3	492633	60.4	0
3	493737	60.5	0
3	494803	60.6	0
3	495873	60.7	0
3	497031	60.8	0
3	498257	60.9	0
3	499411	61	0
3	500438	61.1	0
3	501496	61.2	0
3	502659	61.3	0
3	503828	61.4	0
3	505015	61.5	0
3	506128	61.6	0
3	507195	61.7	0
3	508351	61.8	0
3	509518	61.9	0
3	510569	62	0
3	511657	62.1	0
3	512949	62.2	0
3	514359	62.3	0
3	515692	62.4	0
3	517028	62.5	0
3	518417	62.6	0
3	519720	62.7	0
3	521015	62.8	0
3	522299	62.9	0
3	523655	63	0
3	524958	63.1	0
3	526240	63.2	0
3	527446	63.3	0
3	528625	63.4	0
3	529898	63.5	0
3	531132	63.6	0
3	532471	63.7	0
3	533816	63.8	0
3	535232	63.9	0
3	536570	64	0
3	537923	64.1	0
3	539363	64.2	0
3	540666	64.3	0
3	542041	64.4	0
3	543241	64.5	0
3	544561	64.6	0
3	545855	64.7	0
3	547254	64.8	0
3	548684	64.9	0
3	549949	65	0
3	551323	65.1	0
3	552552	65.2	0
3	553731	65.3	0
3	555068	65.4	0
3	556446	65.5	0
3	557774	65.6	0
3	559162	65.7	0
3	560560	65.8	0
3	561951	65.9	0
3	563246	66	0
3	564520	66.1	0
3	565723	66.2	0
3	567038	66.3	0
3	568326	66.4	0
3	569597	66.5	0
3	570897	66.6	0
3	572253	66.7	0
3	573631	66.8	0
3	574889	66.9	0
3	576086	67	0
3	577323	67.1	0
3	578639	67.2	0
3	579997	67.3	0
3	581423	67.4	0
3	582844	67.5	0
3	584160	67.6	0
3	585584	67.7	0
3	586822	67.8	0
3	588111	67.9	0
3	589632	68	0
3	591082	68.1	0
3	592422	68.2	0
3	593921	68.3	0
3	595486	68.4	0
3	596966	68.5	0
3	598537	68.6	0
3	600161	68.7	0
3	601596	68.8	0
3	603073	68.9	0
3	604664	69	0
3	606168	69.1	0
3	607618	69.2	0
3	609041	69.3	0
3	610658	69.4	0
3	612132	69.5	0
3	613602	69.6	0
3	615113	69.7	0
3	616710	69.8	0
3	618357	69.9	0
3	619848	70	0
3	621290	70.1	0
3	622691	70.2	0
3	624184	70.3	0
3	625795	70.4	0
3	627431	70.5	0
3	628918	70.6	0
3	630478	70.7	0
3	632179	70.8	0
3	633809	70.9	0
3	635426	71	0
3	636933	71.1	0
3	638502	71.2	0
3	639913	71.3	0
3	641481	71.4	0
3	643122	71.5	0
3	644715	71.6	0
3	646293	71.7	0
3	647989	71.8	0
3	649495	71.9	0
3	650964	72	0
3	652424	72.1	0
3	653859	72.2	0
3	655466	72.3	0
3	656960	72.4	0
3	658573	72.5	0
3	660070	72.6	0
3	661571	72.7	0
3	663233	72.8	0
3	664763	72.9	0
3	666354	73	0
3	667879	73.1	0
3	669474	73.2	0
3	670935	73.3	0
3	672408	73.4	0
3	674047	73.5	0
3	675644	73.6	0
3	677249	73.7	0
3	678886	73.8	0
3	680431	73.9	0
3	681909	74	0
3	683457	74.1	0
3	684969	74.2	0
4	56	0.3	8.2411490285043
4	104	0.4	10.702615822783
4	152	0.5	7.4161976788544
4	200	0.6	1.3336271612027
4	248	0.7	1.3336271612027
4	296	0.8	1.3336271612027
4	344	0.9	1.3336271612027
4	392	1	1.3336271612027
4	440	1.1	1.3336271612027
4	508	1.2	1.3336271612027
4	590	1.3	1.3336271612027
4	672	1.4	1.3336271612027
4	754	1.5	1.3336271612027
4	836	1.6	1.3336271612027
4	918	1.7	1.3336271612027
4	1000	1.8	1.3336271612027
4	1082	1.9	1.3336271612027
4	1164	2	1.3336271612027
4	1246	2.1	1.3336271612027
4	1374	2.2	1.3336271612027
4	1618	2.3	1.3336271612027
4	1905	2.4	1.3336271612027
4	2184	2.5	1.3336271612027
4	2481	2.6	1.3336271612027
4	2760	2.7	1.3336271612027
4	3058	2.8	1.3336271612027
4	3338	2.9	1.3336271612027
4	3625	3	1.3336271612027
4	3896	3.1	1.3336271612027
4	4197	3.2	1.3336271612027
4	4488	3.3	1.3336271612027
4	4780	3.4	1.3336271612027
4	5053	3.5	1.3336271612027
4	5341	3.6	1.3336271612027
4	5622	3.7	1.3336271612027
4	5923	3.8	1.3336271612027
4	6200	3.9	1.3336271612027
4	6502	4	1.3336271612027
4	6794	4.1	1.3336271612027
4	7095	4.2	1.3336271612027
4	7368	4.3	1.3336271612027
4	7669	4.4	1.3336271612027
4	7937	4.5	1.3336271612027
4	8233	4.6	1.3336271612027
4	8501	4.7	1.3336271612027
4	8783	4.8	1.3336271612027
4	9072	4.9	1.3336271612027
4	9371	5	1.3336271612027
4	9648	5.1	1.3336271612027
4	9934	5.2	1.3336271612027
4	10213	5.3	1.3336271612027
4	10502	5.4	1.3336271612027
4	10765	5.5	1.3336271612027
4	11054	5.6	1.3336271612027
4	11328	5.7	1.3336271612027
4	11621	5.8	1.3336271612027
4	11889	5.9	1.3336271612027
4	12184	6	1.3336271612027
4	12452	6.1	1.3336271612027
4	12753	6.2	1.3336271612027
4	13027	6.3	1.3336271612027
4	13313	6.4	1.3336271612027
4	13584	6.5	1.3336271612027
4	13872	6.6	1.3336271612027
4	14152	6.7	1.3336271612027
4	14452	6.8	1.3336271612027
4	14725	6.9	1.3336271612027
4	15026	7	1.3336271612027
4	15305	7.1	1.3336271612027
4	15592	7.2	1.3336271612027
4	15853	7.3	1.3336271612027
4	16150	7.4	1.3336271612027
4	16429	7.5	1.3336271612027
4	16723	7.6	1.3336271612027
4	17002	7.7	1.3336271612027
4	17294	7.8	1.3336271612027
4	17571	7.9	1.3336271612027
4	17851	8	1.3336271612027
4	18128	8.1	1.3336271612027
4	18521	8.2	1.3336271612027
4	19035	8.3	1.3336271612027
4	19538	8.4	1.3336271612027
4	20085	8.5	1.3336271612027
4	20605	8.6	1.3336271612027
4	21160	8.7	1.3336271612027
4	21717	8.8	1.3336271612027
4	22253	8.9	1.3336271612027
4	22797	9	1.3336271612027
4	23327	9.1	1.3336271612027
4	23947	9.2	1.3336271612027
4	24633	9.3	1.3336271612027
4	25288	9.4	1.3336271612027
4	26027	9.5	1.3336271612027
4	26754	9.6	1.3336271612027
4	27438	9.7	1.3336271612027
4	28093	9.8	1.3336271612027
4	28852	9.9	1.3336271612027
4	29616	10	1.3336271612027
4	30358	10.1	1.3336271612027
4	31078	10.2	1.3336271612027
4	31876	10.3	1.3336271612027
4	32614	10.4	1.3336271612027
4	33421	10.5	1.3336271612027
4	34175	10.6	1.3336271612027
4	34904	10.7	1.3336271612027
4	35674	10.8	1.3336271612027
4	36414	10.9	1.3336271612027
4	37137	11	1.3336271612027
4	37929	11.1	1.3336271612027
4	38704	11.2	1.3336271612027
4	39481	11.3	1.3336271612027
4	40233	11.4	1.3336271612027
4	40926	11.5	1.3336271612027
4	41637	11.6	1.3336271612027
4	42342	11.7	1.3336271612027
4	43051	11.8	1.3336271612027
4	43756	11.9	1.3336271612027
4	44453	12	1.3336271612027
4	45155	12.1	1.3336271612027
4	45946	12.2	1.3336271612027
4	46735	12.3	1.3336271612027
4	47624	12.4	1.3336271612027
4	48420	12.5	1.3336271612027
4	49097	12.6	1.3336271612027
4	49810	12.7	1.3336271612027
4	50512	12.8	1.3336271612027
4	51164	12.9	1.3336271612027
4	51836	13	1.3336271612027
4	52546	13.1	1.3336271612027
4	53351	13.2	1.3336271612027
4	54104	13.3	1.3336271612027
4	54836	13.4	1.3336271612027
4	55492	13.5	1.3336271612027
4	56271	13.6	1.3336271612027
4	57112	13.7	1.3336271612027
4	57860	13.8	1.3336271612027
4	58599	13.9	1.3336271612027
4	59293	14	1.3336271612027
4	60035	14.1	1.3336271612027
4	60854	14.2	1.3336271612027
4	61616	14.3	1.3336271612027
4	62408	14.4	1.3336271612027
4	63171	14.5	1.3336271612027
4	63975	14.6	1.3336271612027
4	64752	14.7	1.3336271612027
4	65561	14.8	1.3336271612027
4	66313	14.9	1.3336271612027
4	67043	15	1.3336271612027
4	67834	15.1	1.3336271612027
4	68606	15.2	1.3336271612027
4	69386	15.3	1.3336271612027
[...]
46	545855	64.7	185.9
46	547254	64.8	185.9
46	548684	64.9	185.9
46	549949	65	185.9
46	551323	65.1	185.9
46	552552	65.2	185.9
46	553731	65.3	185.9
46	555068	65.4	185.9
46	556446	65.5	185.9
46	557774	65.6	185.9
46	559162	65.7	185.9
46	560560	65.8	185.9
46	561951	65.9	185.9
46	563246	66	185.9
46	564520	66.1	185.9
46	565723	66.2	185.9
46	567038	66.3	185.9
46	568326	66.4	185.9
46	569597	66.5	185.9
46	570897	66.6	185.9
46	572253	66.7	185.9
46	573631	66.8	185.9
46	574889	66.9	185.9
46	576086	67	185.9
46	577323	67.1	185.9
46	578639	67.2	185.9
46	579997	67.3	185.9
46	581423	67.4	185.9
46	582844	67.5	185.9
46	584160	67.6	185.9
46	585584	67.7	185.9
46	586822	67.8	185.9
46	588111	67.9	185.9
46	589632	68	185.9
46	591082	68.1	185.9
46	592422	68.2	185.9
46	593921	68.3	185.9
46	595486	68.4	185.9
46	596966	68.5	185.9
46	598537	68.6	185.9
46	600161	68.7	185.9
46	601596	68.8	185.9
46	603073	68.9	185.9
46	604664	69	185.9
46	606168	69.1	185.9
46	607618	69.2	185.93134845521
46	609041	69.3	185.9907226646
46	610658	69.4	186.050096874
46	612132	69.5	186.1094710834
46	613602	69.6	186.1688452928
46	615113	69.7	186.2282195022
46	616710	69.8	186.2875937116
46	618357	69.9	186.346967921
46	619848	70	186.4063421304
46	621290	70.1	186.50717658444
46	622691	70.2	186.72318199925
46	624184	70.3	186.93918741406
46	625795	70.4	187.15519282888
46	627431	70.5	187.37119824369
46	628918	70.6	187.58720365851
46	630478	70.7	187.80320907332
46	632179	70.8	188.01921448813
46	633809	70.9	188.32536650491
46	635426	71	188.68537552961
46	636933	71.1	189.0453845543
46	638502	71.2	189.40539357899
46	639913	71.3	189.76540260368
46	641481	71.4	190.12541162837
46	643122	71.5	190.48542065306
46	644715	71.6	190.84542967775
46	646293	71.7	191.2603431678
46	647989	71.8	191.6759626336
46	649495	71.9	192.09158209939
46	650964	72	192.50720156518
46	652424	72.1	192.92282103097
46	653859	72.2	193.33844049677
46	655466	72.3	193.75405996256
46	656960	72.4	194.16967942835
46	658573	72.5	194.58529889414
46	660070	72.6	195.00392586241
46	661571	72.7	195.42369920094
46	663233	72.8	195.84347253947
46	664763	72.9	196.263245878
46	666354	73	196.68301921653
46	667879	73.1	197.10279255506
46	669474	73.2	197.52256589359
46	670935	73.3	197.94233923213
46	672408	73.4	198.36211257066
46	674047	73.5	198.78188590919
46	675644	73.6	199.20165924772
46	677249	73.7	199.62143258625
46	678886	73.8	200.04120592478
46	680431	73.9	200.46097926331
46	681909	74	200.88075260184
46	683457	74.1	201.30052594037
46	684969	74.2	201.7202992789
47	512949	62.2	1.9
47	514359	62.3	2.9
47	515692	62.4	3.9
47	517028	62.5	4.1977333853056
47	518417	62.6	4.1977333853056
47	519720	62.7	4.1977333853056
47	521015	62.8	4.1977333853056
47	522299	62.9	4.1977333853056
47	523655	63	4.1977333853056
47	524958	63.1	4.1977333853056
47	526240	63.2	4.1977333853056
47	527446	63.3	4.1977333853056
47	528625	63.4	4.1977333853056
47	529898	63.5	4.1977333853056
47	531132	63.6	4.1977333853056
47	532471	63.7	4.1977333853056
47	533816	63.8	4.1977333853056
47	535232	63.9	4.1977333853056
47	536570	64	4.1977333853056
47	537923	64.1	4.1977333853056
47	539363	64.2	4.1977333853056
47	540666	64.3	4.1977333853056
47	542041	64.4	4.1977333853056
47	543241	64.5	4.1977333853056
47	544561	64.6	4.1977333853056
47	545855	64.7	4.1977333853056
47	547254	64.8	4.1977333853056
47	548684	64.9	4.1977333853056
47	549949	65	4.1977333853056
47	551323	65.1	4.1977333853056
47	552552	65.2	4.1977333853056
47	553731	65.3	4.1977333853056
47	555068	65.4	4.1977333853056
47	556446	65.5	4.1977333853056
47	557774	65.6	4.1977333853056
47	559162	65.7	4.1977333853056
47	560560	65.8	4.1977333853056
47	561951	65.9	4.1977333853056
47	563246	66	4.1977333853056
47	564520	66.1	4.1977333853056
47	565723	66.2	4.1977333853056
47	567038	66.3	4.1977333853056
47	568326	66.4	4.1977333853056
47	569597	66.5	4.1977333853056
47	570897	66.6	4.1977333853056
47	572253	66.7	4.1977333853056
47	573631	66.8	4.1977333853056
47	574889	66.9	4.1977333853056
47	576086	67	4.1977333853056
47	577323	67.1	4.1977333853056
47	578639	67.2	4.1977333853056
47	579997	67.3	4.1977333853056
47	581423	67.4	4.1977333853056
47	582844	67.5	4.1977333853056
47	584160	67.6	4.1977333853056
47	585584	67.7	4.1977333853056
47	586822	67.8	4.1977333853056
47	588111	67.9	4.1977333853056
47	589632	68	4.1977333853056
47	591082	68.1	4.1977333853056
47	592422	68.2	4.1977333853056
47	593921	68.3	4.1977333853056
47	595486	68.4	4.1977333853056
47	596966	68.5	4.1977333853056
47	598537	68.6	4.1977333853056
47	600161	68.7	4.1977333853056
47	601596	68.8	4.1977333853056
47	603073	68.9	4.1977333853056
47	604664	69	4.1977333853056
47	606168	69.1	4.1977333853056
47	607618	69.2	4.1977333853056
47	609041	69.3	4.1977333853056
47	610658	69.4	4.1977333853056
47	612132	69.5	4.1977333853056
47	613602	69.6	4.1977333853056
47	615113	69.7	4.1977333853056
47	616710	69.8	4.1977333853056
47	618357	69.9	4.1977333853056
47	619848	70	4.1977333853056
47	621290	70.1	4.1977333853056
47	622691	70.2	4.1977333853056
47	624184	70.3	4.1977333853056
47	625795	70.4	4.1977333853056
47	627431	70.5	4.1977333853056
47	628918	70.6	4.1977333853056
47	630478	70.7	4.1977333853056
47	632179	70.8	4.1977333853056
47	633809	70.9	4.1977333853056
47	635426	71	4.1977333853056
47	636933	71.1	4.1977333853056
47	638502	71.2	4.1977333853056
47	639913	71.3	4.1977333853056
47	641481	71.4	4.1977333853056
47	643122	71.5	4.1977333853056
47	644715	71.6	4.1977333853056
47	646293	71.7	4.1977333853056
47	647989	71.8	4.1977333853056
47	649495	71.9	4.1977333853056
47	650964	72	4.1977333853056
47	652424	72.1	4.1977333853056
47	653859	72.2	4.1977333853056
47	655466	72.3	4.1977333853056
47	656960	72.4	4.1977333853056
47	658573	72.5	4.1977333853056
47	660070	72.6	4.1977333853056
47	661571	72.7	4.1977333853056
47	663233	72.8	4.1977333853056
47	664763	72.9	4.1977333853056
47	666354	73	4.1977333853056
47	667879	73.1	4.1977333853056
47	669474	73.2	4.1977333853056
47	670935	73.3	4.1977333853056
47	672408	73.4	4.1977333853056
47	674047	73.5	4.1977333853056
47	675644	73.6	4.1977333853056
47	677249	73.7	4.1977333853056
47	678886	73.8	4.1977333853056
47	680431	73.9	4.1977333853056
47	681909	74	4.1977333853056
47	683457	74.1	4.1977333853056
47	684969	74.2	4.1977333853056
48	514359	62.3	10
48	515692	62.4	10
48	517028	62.5	2.9773338530563
48	518417	62.6	0
48	519720	62.7	0
48	521015	62.8	0
48	522299	62.9	0
48	523655	63	0
48	524958	63.1	0
48	526240	63.2	0
48	527446	63.3	0
48	528625	63.4	0
48	529898	63.5	0
48	531132	63.6	0
48	532471	63.7	0
48	533816	63.8	0
48	535232	63.9	0
48	536570	64	0
48	537923	64.1	0
48	539363	64.2	0
48	540666	64.3	0
48	542041	64.4	0
48	543241	64.5	0
48	544561	64.6	0
48	545855	64.7	0
48	547254	64.8	0
48	548684	64.9	0
48	549949	65	0
48	551323	65.1	0
48	552552	65.2	0
48	553731	65.3	0
48	555068	65.4	0
48	556446	65.5	0
48	557774	65.6	0
48	559162	65.7	0
48	560560	65.8	0
48	561951	65.9	0
48	563246	66	0
48	564520	66.1	0
48	565723	66.2	0
48	567038	66.3	0
48	568326	66.4	0
48	569597	66.5	0
48	570897	66.6	0
48	572253	66.7	0
48	573631	66.8	0
48	574889	66.9	0
48	576086	67	0
48	577323	67.1	0
48	578639	67.2	0
48	579997	67.3	0
48	581423	67.4	0
48	582844	67.5	0
48	584160	67.6	0
48	585584	67.7	0
48	586822	67.8	0
48	588111	67.9	0
48	589632	68	0
48	591082	68.1	0
48	592422	68.2	0
48	593921	68.3	0
48	595486	68.4	0
48	596966	68.5	0
48	598537	68.6	0
48	600161	68.7	0
48	601596	68.8	0
48	603073	68.9	0
48	604664	69	0
48	606168	69.1	0
48	607618	69.2	0
48	609041	69.3	0
48	610658	69.4	0
48	612132	69.5	0
48	613602	69.6	0
48	615113	69.7	0
48	616710	69.8	0
48	618357	69.9	0
48	619848	70	0
48	621290	70.1	0
48	622691	70.2	0
48	624184	70.3	0
48	625795	70.4	0
48	627431	70.5	0
48	628918	70.6	0
48	630478	70.7	0
48	632179	70.8	0
48	633809	70.9	0
48	635426	71	0
48	636933	71.1	0
48	638502	71.2	0
48	639913	71.3	0
48	641481	71.4	0
48	643122	71.5	0
48	644715	71.6	0
48	646293	71.7	0
48	647989	71.8	0
48	649495	71.9	0
48	650964	72	0
48	652424	72.1	0
48	653859	72.2	0
48	655466	72.3	0
48	656960	72.4	0
48	658573	72.5	0
48	660070	72.6	0
48	661571	72.7	0
48	663233	72.8	0
48	664763	72.9	0
48	666354	73	0
48	667879	73.1	0
48	669474	73.2	0
48	670935	73.3	0
48	672408	73.4	0
48	674047	73.5	0
48	675644	73.6	0
48	677249	73.7	0
48	678886	73.8	0
48	680431	73.9	0
48	681909	74	0
48	683457	74.1	0
48	684969	74.2	0
49	514359	62.3	8.2411490285043
49	515692	62.4	10.702615822783
49	517028	62.5	4.3313626952863
49	518417	62.6	1.3193317501701
49	519720	62.7	1.3193317501701
49	521015	62.8	1.3193317501701
49	522299	62.9	1.3193317501701
49	523655	63	1.3193317501701
49	524958	63.1	1.3193317501701
49	526240	63.2	1.3193317501701
49	527446	63.3	1.3193317501701
49	528625	63.4	1.3193317501701
49	529898	63.5	1.3193317501701
49	531132	63.6	1.3193317501701
49	532471	63.7	1.3193317501701
49	533816	63.8	1.3193317501701
49	535232	63.9	1.3193317501701
49	536570	64	1.3193317501701
49	537923	64.1	1.3193317501701
49	539363	64.2	1.3193317501701
49	540666	64.3	1.3193317501701
49	542041	64.4	1.3193317501701
49	543241	64.5	1.3193317501701
49	544561	64.6	1.3193317501701
49	545855	64.7	1.3193317501701
49	547254	64.8	1.3193317501701
49	548684	64.9	1.3193317501701
49	549949	65	1.3193317501701
49	551323	65.1	1.3193317501701
49	552552	65.2	1.3193317501701
49	553731	65.3	1.3193317501701
49	555068	65.4	1.3193317501701
49	556446	65.5	1.3193317501701
49	557774	65.6	1.3193317501701
49	559162	65.7	1.3193317501701
49	560560	65.8	1.3193317501701
49	561951	65.9	1.3193317501701
49	563246	66	1.3193317501701
49	564520	66.1	1.3193317501701
49	565723	66.2	1.3193317501701
49	567038	66.3	1.3193317501701
49	568326	66.4	1.3193317501701
49	569597	66.5	1.3193317501701
49	570897	66.6	1.3193317501701
49	572253	66.7	1.3193317501701
49	573631	66.8	1.3193317501701
49	574889	66.9	1.3193317501701
49	576086	67	1.3193317501701
49	577323	67.1	1.3193317501701
49	578639	67.2	1.3193317501701
49	579997	67.3	1.3193317501701
49	581423	67.4	1.3193317501701
49	582844	67.5	1.3193317501701
49	584160	67.6	1.3193317501701
49	585584	67.7	1.3193317501701
49	586822	67.8	1.3193317501701
49	588111	67.9	1.3193317501701
49	589632	68	1.3193317501701
49	591082	68.1	1.3193317501701
49	592422	68.2	1.3193317501701
49	593921	68.3	1.3193317501701
49	595486	68.4	1.3193317501701
49	596966	68.5	1.3193317501701
49	598537	68.6	1.3193317501701
49	600161	68.7	1.3193317501701
49	601596	68.8	1.3193317501701
49	603073	68.9	1.3193317501701
49	604664	69	1.3193317501701
49	606168	69.1	1.3193317501701
49	607618	69.2	1.3193317501701
49	609041	69.3	1.3193317501701
49	610658	69.4	1.3193317501701
49	612132	69.5	1.3193317501701
49	613602	69.6	1.3193317501701
49	615113	69.7	1.3193317501701
49	616710	69.8	1.3193317501701
49	618357	69.9	1.3193317501701
49	619848	70	1.3193317501701
49	621290	70.1	1.3193317501701
49	622691	70.2	1.3193317501701
49	624184	70.3	1.3193317501701
49	625795	70.4	1.3193317501701
49	627431	70.5	1.3193317501701
49	628918	70.6	1.3193317501701
49	630478	70.7	1.3193317501701
49	632179	70.8	1.3193317501701
49	633809	70.9	1.3193317501701
49	635426	71	1.3193317501701
49	636933	71.1	1.3193317501701
49	638502	71.2	1.3193317501701
49	639913	71.3	1.3193317501701
49	641481	71.4	1.3193317501701
49	643122	71.5	1.3193317501701
49	644715	71.6	1.3193317501701
49	646293	71.7	1.3193317501701
49	647989	71.8	1.3193317501701
49	649495	71.9	1.3193317501701
49	650964	72	1.3193317501701
49	652424	72.1	1.3193317501701
49	653859	72.2	1.3193317501701
49	655466	72.3	1.3193317501701
49	656960	72.4	1.3193317501701
49	658573	72.5	1.3193317501701
49	660070	72.6	1.3193317501701
49	661571	72.7	1.3193317501701
49	663233	72.8	1.3193317501701
49	664763	72.9	1.3193317501701
49	666354	73	1.3193317501701
49	667879	73.1	1.3193317501701
49	669474	73.2	1.3193317501701
49	670935	73.3	1.3193317501701
49	672408	73.4	1.3193317501701
49	674047	73.5	1.3193317501701
49	675644	73.6	1.3193317501701
49	677249	73.7	1.3193317501701
49	678886	73.8	1.3193317501701
49	680431	73.9	1.3193317501701
49	681909	74	1.3193317501701
49	683457	74.1	1.3193317501701
49	684969	74.2	1.3193317501701
50	591082	68.1	26.245
50	592422	68.2	26.39
50	593921	68.3	26.635
50	595486	68.4	26.98
50	596966	68.5	27.40134663978
50	598537	68.6	27.827556125179
50	600161	68.7	28.253765610579
50	601596	68.8	28.679975095978
50	603073	68.9	29.106184581378
50	604664	69	29.532394066778
50	606168	69.1	29.958603552177
50	607618	69.2	30.384813037577
50	609041	69.3	30.811022522976
50	610658	69.4	31.237232008376
50	612132	69.5	31.663441493775
50	613602	69.6	32.089650979175
50	615113	69.7	32.515860464575
50	616710	69.8	32.942069949974
50	618357	69.9	33.368279435374
50	619848	70	33.794488920773
50	621290	70.1	34.220698406173
50	622691	70.2	34.646907891572
50	624184	70.3	35.073117376972
50	625795	70.4	35.499326862372
50	627431	70.5	35.925536347771
50	628918	70.6	36.351745833171
50	630478	70.7	36.77795531857
50	632179	70.8	37.20416480397
50	633809	70.9	37.630374289369
50	635426	71	38.056583774769
50	636933	71.1	38.482793260169
50	638502	71.2	38.909002745568
50	639913	71.3	39.335212230968
50	641481	71.4	39.761421716367
50	643122	71.5	40.187631201767
50	644715	71.6	40.613840687166
50	646293	71.7	41.040050172566
50	647989	71.8	41.466259657966
50	649495	71.9	41.892469143365
50	650964	72	42.318678628765
50	652424	72.1	42.744888114164
50	653859	72.2	43.167425398258
50	655466	72.3	43.589417321941
50	656960	72.4	44.011409245625
50	658573	72.5	44.433401169308
50	660070	72.6	44.855393092992
50	661571	72.7	45.273720864771
50	663233	72.8	45.639249703953
50	664763	72.9	46.004778543134
50	666354	73	46.370307382316
50	667879	73.1	46.735836221498
50	669474	73.2	47.060819036408
50	670935	73.3	47.280136339917
50	672408	73.4	47.499453643426
50	674047	73.5	47.718770946935
50	675644	73.6	47.938088250443
50	677249	73.7	48.079522962915
50	678886	73.8	48.139807523441
50	680431	73.9	48.200092083967
50	681909	74	48.260376644494
50	683457	74.1	48.32066120502
50	684969	74.2	48.380945765546
51	591082	68.1	164.1
51	592422	68.2	164.1
51	593921	68.3	164.1
51	595486	68.4	164.1
51	596966	68.5	164.1
51	598537	68.6	164.1
51	600161	68.7	164.1
51	601596	68.8	164.1
51	603073	68.9	164.1
51	604664	69	164.1
51	606168	69.1	164.1
51	607618	69.2	164.1
51	609041	69.3	164.1
51	610658	69.4	164.1
51	612132	69.5	164.1
51	613602	69.6	164.1
51	615113	69.7	164.1
51	616710	69.8	164.1
51	618357	69.9	164.1
51	619848	70	164.1
51	621290	70.1	164.1
51	622691	70.2	164.1
51	624184	70.3	164.1
51	625795	70.4	164.1
51	627431	70.5	164.1
51	628918	70.6	164.1
51	630478	70.7	164.1
51	632179	70.8	164.1
51	633809	70.9	164.1
51	635426	71	164.1
51	636933	71.1	164.1
51	638502	71.2	164.1
51	639913	71.3	164.1
51	641481	71.4	164.1
51	643122	71.5	164.1
51	644715	71.6	164.1
51	646293	71.7	164.1
51	647989	71.8	164.1
51	649495	71.9	164.1
51	650964	72	164.1
51	652424	72.1	164.1
51	653859	72.2	164.15248934261
51	655466	72.3	164.21277390313
51	656960	72.4	164.27305846366
51	658573	72.5	164.33334302419
51	660070	72.6	164.39362758471
51	661571	72.7	164.46423251886
51	663233	72.8	164.68354982237
51	664763	72.9	164.90286712588
51	666354	73	165.12218442939
51	667879	73.1	165.3415017329
51	669474	73.2	165.60136506068
51	670935	73.3	165.96689389986
51	672408	73.4	166.33242273904
51	674047	73.5	166.69795157822
51	675644	73.6	167.06348041741
51	677249	73.7	167.4566607404
51	678886	73.8	167.87865266409
51	680431	73.9	168.30064458777
51	681909	74	168.72263651145
51	683457	74.1	169.14462843514
51	684969	74.2	169.56662035882
52	592422	68.2	1.9
52	593921	68.3	2.9
52	595486	68.4	3.9
52	596966	68.5	4.2620948539957
52	598537	68.6	4.2620948539957
52	600161	68.7	4.2620948539957
52	601596	68.8	4.2620948539957
52	603073	68.9	4.2620948539957
52	604664	69	4.2620948539957
52	606168	69.1	4.2620948539957
52	607618	69.2	4.2620948539957
52	609041	69.3	4.2620948539957
52	610658	69.4	4.2620948539957
52	612132	69.5	4.2620948539957
52	613602	69.6	4.2620948539957
52	615113	69.7	4.2620948539957
52	616710	69.8	4.2620948539957
52	618357	69.9	4.2620948539957
52	619848	70	4.2620948539957
52	621290	70.1	4.2620948539957
52	622691	70.2	4.2620948539957
52	624184	70.3	4.2620948539957
52	625795	70.4	4.2620948539957
52	627431	70.5	4.2620948539957
52	628918	70.6	4.2620948539957
52	630478	70.7	4.2620948539957
52	632179	70.8	4.2620948539957
52	633809	70.9	4.2620948539957
52	635426	71	4.2620948539957
52	636933	71.1	4.2620948539957
52	638502	71.2	4.2620948539957
52	639913	71.3	4.2620948539957
52	641481	71.4	4.2620948539957
52	643122	71.5	4.2620948539957
52	644715	71.6	4.2620948539957
52	646293	71.7	4.2620948539957
52	647989	71.8	4.2620948539957
52	649495	71.9	4.2620948539957
52	650964	72	4.2620948539957
52	652424	72.1	4.2620948539957
52	653859	72.2	4.2620948539957
52	655466	72.3	4.2620948539957
52	656960	72.4	4.2620948539957
52	658573	72.5	4.2620948539957
52	660070	72.6	4.2620948539957
52	661571	72.7	4.2620948539957
52	663233	72.8	4.2620948539957
52	664763	72.9	4.2620948539957
52	666354	73	4.2620948539957
52	667879	73.1	4.2620948539957
52	669474	73.2	4.2620948539957
52	670935	73.3	4.2620948539957
52	672408	73.4	4.2620948539957
52	674047	73.5	4.2620948539957
52	675644	73.6	4.2620948539957
52	677249	73.7	4.2620948539957
52	678886	73.8	4.2620948539957
52	680431	73.9	4.2620948539957
52	681909	74	4.2620948539957
52	683457	74.1	4.2620948539957
52	684969	74.2	4.2620948539957
53	593921	68.3	10
53	595486	68.4	10
53	596966	68.5	3.620948539957
53	598537	68.6	0
53	600161	68.7	0
53	601596	68.8	0
53	603073	68.9	0
53	604664	69	0
53	606168	69.1	0
53	607618	69.2	0
53	609041	69.3	0
53	610658	69.4	0
53	612132	69.5	0
53	613602	69.6	0
53	615113	69.7	0
53	616710	69.8	0
53	618357	69.9	0
53	619848	70	0
53	621290	70.1	0
53	622691	70.2	0
53	624184	70.3	0
53	625795	70.4	0
53	627431	70.5	0
53	628918	70.6	0
53	630478	70.7	0
53	632179	70.8	0
53	633809	70.9	0
53	635426	71	0
53	636933	71.1	0
53	638502	71.2	0
53	639913	71.3	0
53	641481	71.4	0
53	643122	71.5	0
53	644715	71.6	0
53	646293	71.7	0
53	647989	71.8	0
53	649495	71.9	0
53	650964	72	0
53	652424	72.1	0
53	653859	72.2	0
53	655466	72.3	0
53	656960	72.4	0
53	658573	72.5	0
53	660070	72.6	0
53	661571	72.7	0
53	663233	72.8	0
53	664763	72.9	0
53	666354	73	0
53	667879	73.1	0
53	669474	73.2	0
53	670935	73.3	0
53	672408	73.4	0
53	674047	73.5	0
53	675644	73.6	0
53	677249	73.7	0
53	678886	73.8	0
53	680431	73.9	0
53	681909	74	0
53	683457	74.1	0
53	684969	74.2	0
54	593921	68.3	8.2411490285043
54	595486	68.4	10.702615822783
54	596966	68.5	5.0420667942996
54	598537	68.6	1.3227556948648
54	600161	68.7	1.3227556948648
54	601596	68.8	1.3227556948648
54	603073	68.9	1.3227556948648
54	604664	69	1.3227556948648
54	606168	69.1	1.3227556948648
54	607618	69.2	1.3227556948648
54	609041	69.3	1.3227556948648
54	610658	69.4	1.3227556948648
54	612132	69.5	1.3227556948648
54	613602	69.6	1.3227556948648
54	615113	69.7	1.3227556948648
54	616710	69.8	1.3227556948648
54	618357	69.9	1.3227556948648
54	619848	70	1.3227556948648
54	621290	70.1	1.3227556948648
54	622691	70.2	1.3227556948648
54	624184	70.3	1.3227556948648
54	625795	70.4	1.3227556948648
54	627431	70.5	1.3227556948648
54	628918	70.6	1.3227556948648
54	630478	70.7	1.3227556948648
54	632179	70.8	1.3227556948648
54	633809	70.9	1.3227556948648
54	635426	71	1.3227556948648
54	636933	71.1	1.3227556948648
54	638502	71.2	1.3227556948648
54	639913	71.3	1.3227556948648
54	641481	71.4	1.3227556948648
54	643122	71.5	1.3227556948648
54	644715	71.6	1.3227556948648
54	646293	71.7	1.3227556948648
54	647989	71.8	1.3227556948648
54	649495	71.9	1.3227556948648
54	650964	72	1.3227556948648
54	652424	72.1	1.3227556948648
54	653859	72.2	1.3227556948648
54	655466	72.3	1.3227556948648
54	656960	72.4	1.3227556948648
54	658573	72.5	1.3227556948648
54	660070	72.6	1.3227556948648
54	661571	72.7	1.3227556948648
54	663233	72.8	1.3227556948648
54	664763	72.9	1.3227556948648
54	666354	73	1.3227556948648
54	667879	73.1	1.3227556948648
54	669474	73.2	1.3227556948648
54	670935	73.3	1.3227556948648
54	672408	73.4	1.3227556948648
54	674047	73.5	1.3227556948648
54	675644	73.6	1.3227556948648
54	677249	73.7	1.3227556948648
54	678886	73.8	1.3227556948648
54	680431	73.9	1.3227556948648
54	681909	74	1.3227556948648
54	683457	74.1	1.3227556948648
54	684969	74.2	1.3227556948648

